Geom Title=ElbeUmflut
Program Version=6.40
Viewing Rectangle= 687502.940930144 , 694210.367543062 , 5773315.05524737 , 5768892.72688247 

River Reach=ElbeUmflut      ,Reach 1         
Reach XY= 110 
693895.5601015635769238.70145683693831.235623749 5769251.5663524
693772.3279440655769271.87934539693718.1599627485769303.02593465
693673.4713781615769329.43282554693633.5224919395769351.77711783
693595.6049050165769376.82980919693567.1667148245769399.17410149
693550.9163204295769418.13289495693538.0514248665769454.69628234
693502.842237009 5769479.7489737693459.115276508 5769484.9090085
693404.4189076265769471.49291802693337.3384552255769482.84499458
693279.5460654635769498.32509898693214.5296269825769524.12527298
693187.6974460215769537.54136346 693148.481181545769530.31731474
693088.6247778585769558.18150266693000.9041862565769587.07769754
692926.5996851345769575.72562098692844.0391283325769540.63738434
692789.3427594515769503.48513378 692744.966460175769462.20485538
692704.7181887295769413.70052826692665.501924248 5769340.4280341
692618.0296040875769278.50761649692570.5572839265769209.36315017
692518.9569359245769152.60276737692424.0122956025769141.25069081
 692323.907620485769143.31470473692241.3470636785769166.01885785
692162.9145347165769178.40294137692091.7060544745769219.68321977
692027.7216229525769260.96349817691998.8254280725769304.30779049
691970.9612401515769355.90813849691954.4491287915769425.05260482
 691948.257087035769486.97302242 691930.712968715769565.40555138
 691913.168850395769625.26195506 691924.520926955769669.63825434
691953.4171218315769719.17458842 691938.969024395769788.31905475
 691915.232864315769835.79137491691889.4326903095769899.77580643
691865.6965302285769960.66421707691830.6082935885770013.29657203
691807.9041404675770072.12096875691797.5840708675770151.58550467
691805.840126547 5770205.2498666691804.8081195875770278.52236076
691788.2960082265770361.08291756691763.5278411865770445.70748828
691737.7276671855770522.07600332691731.5356254255770594.31649053
691728.4396045455770661.39694293691728.4396045455770719.18933269
691728.4396045455770783.17376421691713.9915071055770857.47826533
691679.9352774245770911.14262725691629.3669363835770970.99903093
691570.5425396615771001.95923974691499.334059419 5771028.7914207
691433.2856139785771051.49557382691360.0131198165771082.45578262
691286.7406256545771109.28796358691211.4041175725771136.12014454
691161.8677834915771179.46443686691139.1636303715771239.32084054
 691100.97937285 5771302.2732651691048.3470178885771371.41773142
691008.0987464475771424.05008639690975.0745237275771470.49039959
690933.7942453265771511.77067799690864.6497790045771549.95493551
690793.4412987625771569.56306775 690713.976762845771547.89092159
690638.6402547585771527.25078239690580.8478649975771522.09074759
690519.9594543555771556.14697727690451.8469949945771584.01116519
690395.0866121925771612.90736007 690315.622076275771652.12362455
690258.8616934695771688.24386815690192.8132480275771725.39611871
690127.7968095465771760.48435535690047.3002666645771805.89266159
689957.5156611415771848.20494696  689881.14714615771890.51723232
689782.074477937 5771940.0535664689706.7379698555771977.20581696
689625.2094200135772020.55010928689528.2007657715772062.86239464
 689467.312355135772095.88661736689382.6877844075772142.32693056
689294.9671928055772185.67122288689224.790719523 5772223.8554804
689147.3901975225772256.87970313689022.5173553595772322.92814857
688938.9247915965772363.17642001688845.0121582345772403.42469145
688746.9714970325772460.18507425688644.8028079895772510.75341529
688540.5701050275772555.12971457688451.8175064655772612.92210433
 688287.728399825772709.93075858688142.2154184575772801.77937802
688032.8226806945772872.98785826687908.9818454915772946.26035242
Rch Text X Y=692398.9155375,5770165.5911807
Reverse River Text= 0 

Type RM Length L Ch R = 1 ,8315    ,19.9,21.35,24.2
XS GIS Cut Line=2
693857.6259844595769206.53121101693905.484515202 5769317.7213313
Node Last Edited Time=Jun/21/2023 15:57:19
#Sta/Elev= 50 
       0   49.99     1.4   49.97     2.9   49.88     7.5   49.21       9   49.02
    10.5   48.92    11.5   48.89    12.1   48.85    12.848.82667    13.3   48.81
    13.7   48.77    15.1   48.38    15.9   48.23    16.6   48.18    18.1   48.14
    24.6   48.15    28.9   48.11    33.3   48.14    35.5   48.12    39.8   48.12
    44.2   48.13    50.1   48.17    57.2   48.18    81.2   48.16    83.6   48.19
    84.2   48.23    84.648.27444    85.1   48.33    87.7   48.69    89.9   49.04
    91.2   49.32    92.1   49.48    92.7   49.55    94.3   49.63    98.6   49.36
   100.4   49.37   100.8   49.35   103.4   49.34   104.9   49.31   106.4   49.36
   107.3   49.43     108   49.51   109.5   49.74     111   49.95   111.7   50.02
   113.9    50.1   115.6   50.05     116   50.01   118.2   49.97   121.1   50.01
#Mann= 1 ,-1,0
       03.33E-02       0
Bank Sta=12.8,84.6
XS Rating Curve= 0 ,0
XS HTab Starting El and Incr=48.26,0.09, 20 
XS HTab Horizontal Distribution= 5 , 5 , 5 
Exp/Cntr(USF)=0,0
Exp/Cntr=0.3,0.1

Type RM Length L Ch R = 1 ,8293.50*,19.9,21.35,24.2
XS GIS Cut Line=2
693840.173813474 5769216.0669333693882.0950076965769324.55826426
Node Last Edited Time=Jun/21/2023 16:03:12
#Sta/Elev= 95 
       0   50.37    .662   50.36    1.28  50.338   1.766  50.309   2.651  50.209
   4.084  49.981   6.402  49.576   6.855  49.474   7.506  49.335   8.227  49.157
    8.72  49.052   9.598  48.907  10.155  48.826  10.512   48.78  11.038  48.701
   11.06  48.698    11.7  48.643  11.909  48.625   12.18  48.602  12.564  48.557
   13.37  48.388  13.907    48.3  14.675  48.211  15.347  48.174  15.562  48.167
  16.786  48.144  17.755  48.141  22.139  48.149  23.024  48.146   27.15   48.11
  31.198  48.126  33.223  48.117  37.179  48.118  41.228  48.124  43.905  48.135
  46.656  48.153    47.3  48.155  53.189  48.156  54.308  48.154  58.907  48.172
  65.807  48.179  70.515  48.167  75.115   48.17  75.272  48.169  77.414  48.175
   77.48  48.179  78.032  48.234    78.4   48.28  78.496  48.292  78.921  48.357
  79.554  48.462  79.939  48.533  81.575  48.776  81.627  48.781  83.595  48.975
  83.918  48.995  85.271  49.112  85.711  49.143  86.208  49.174  86.833  49.195
  87.732  49.197  88.499  49.229  89.078  49.223  89.752  49.217  92.157  49.245
  92.975  49.228  93.792  49.237  94.849  49.308  95.266  49.325  95.813  49.359
  97.833  49.455  97.973  49.457  99.534  49.461  99.853   49.47 101.096   49.55
   101.2  49.559  101.97  49.608 102.033  49.613 102.739  49.689 102.762  49.691
  103.99   49.82 104.323  49.834 105.048  49.859 105.885  49.898  106.01  49.901
 106.614  49.943  108.03      50 108.904  50.047 110.051  50.074 110.674  50.084
 111.013  50.079  111.09  50.078 113.381  50.147 114.091   50.18   116.4  50.245
#Mann= 4 ,-1,0
       0  .03333       0    11.7  .03333       0    78.4  .03333       0
   116.4  .03333       0
Bank Sta=11.7,78.4
XS Rating Curve= 0 ,0
XS HTab Starting El and Incr=48.26,0.11, 20 
XS HTab Horizontal Distribution= 5 , 5 , 5 
Exp/Cntr=0.3,0.1

Type RM Length L Ch R = 1 ,8272    ,27.133,26.533,28.333
XS GIS Cut Line=2
693822.7216424895769225.60265559 693858.705500195769331.39519723
Node Last Edited Time=Jun/21/2023 15:57:19
#Sta/Elev= 50 
       0   50.75      .6   50.74     1.6   50.68     3.7   50.31     5.8   49.87
     6.8   49.55     7.9   49.12     9.2   48.75      10   48.55    10.6   48.46
    10.8   48.43    12.2   48.24    14.3   48.16    16.4   48.14    20.6   48.15
    25.4   48.11    40.7   48.12    43.8   48.14    50.2   48.13    54.4   48.17
    60.7   48.19      65   48.17    69.2   48.18    71.3   48.16    72.2  48.286
    72.3    48.3    73.4   48.51    73.8    48.6    75.5   48.87    77.6   48.96
    79.8   48.89    81.9    48.8    83.3   48.85      84   48.88    86.5   49.08
    88.2   49.11    90.3   49.37    92.4   49.57    94.5   49.62    95.9   49.75
    96.7   49.79    97.5   49.87    98.8   49.95    99.9   49.88   100.9   49.84
     103   49.93   105.1   50.08   106.1   50.14   109.3   50.38   111.7   50.48
#Mann= 1 ,-1,0
       03.33E-02       0
Bank Sta=10.6,72.2
XS Rating Curve= 0 ,0
XS HTab Starting El and Incr=48.26,0.12, 21 
XS HTab Horizontal Distribution= 5 , 5 , 5 
Exp/Cntr(USF)=0,0
Exp/Cntr=0.3,0.1

Type RM Length L Ch R = 1 ,8245.33*,27.133,26.533,28.333
XS GIS Cut Line=2
693796.8132649445769233.51910428693830.7580373755769328.51648861
Node Last Edited Time=Jun/21/2023 16:03:12
#Sta/Elev= 94 
       0  50.657     .77  50.601   2.053   50.48   4.302  50.131   4.747  50.053
   5.135  49.978   5.829  49.836   6.245   49.76   7.286   49.58   7.442  49.558
   8.725    49.3   8.812  49.279  10.136   48.99  10.339  48.957  11.796  48.828
   12.42  48.693  12.629   48.66   12.83  48.606  13.322  48.502    13.6  48.435
  13.741  48.412  14.214  48.343  14.728  48.272  16.208  48.206  17.689   48.18
   20.65   48.16  22.192  48.135  24.033   48.11  33.345  48.125   36.14  48.127
  38.593   48.14  43.658  48.133  46.981   48.16  51.967  48.173  55.369   48.16
  56.411  48.162  58.693  48.177  60.354  48.172  60.643  48.207  61.067  48.269
  61.168  48.284  62.277  48.489   62.68  48.573  63.034   48.63  63.427  48.702
  64.395  48.865  64.902  48.911  66.378  49.026  66.512  49.034  67.263  49.038
  67.951   48.99  68.731  48.924  69.328   48.87  69.427  48.867  69.623  48.865
  70.849   48.88      71   48.89   72.26  49.011  72.476  49.033  72.966  49.073
  73.951  49.179  75.487   49.28  75.525   49.28      77  49.294  77.202  49.293
  77.885  49.336  78.475  49.368  79.319  49.408  80.049  49.429  81.437  49.495
  81.524  49.495  82.114  49.497      83  49.535  83.555  49.559  84.278  49.624
  84.573  49.646  84.967  49.667  85.773  49.689  86.049  49.705   86.58  49.726
  87.891  49.746  88.507  49.704      89  49.681  89.098  49.677  90.009  49.658
  92.127  49.727  92.737  49.759  94.244   49.82  95.253  49.853  95.687  49.872
  96.966  49.935   98.48  50.036   99.13  50.065   100.9  50.177
#Mann= 4 ,-1,0
       0  .03333       0    13.6  .03333       0  61.067  .03333       0
   100.9  .03333       0
Bank Sta=13.6,61.067
XS Rating Curve= 0 ,0
XS HTab Starting El and Incr=48.26,0.12, 21 
XS HTab Horizontal Distribution= 5 , 5 , 5 
Exp/Cntr=0.3,0.1

Type RM Length L Ch R = 1 ,8218.67*,27.133,26.533,28.333
XS GIS Cut Line=2
693770.9048873995769241.43555298693802.810574561   5769325.63778
Node Last Edited Time=Jun/21/2023 16:03:12
#Sta/Elev= 94 
       0  50.563     .94  50.462   2.506  50.279   5.251   49.89   5.794  49.795
   6.267  49.709   7.114  49.538   7.622  49.455   8.893  49.265   9.083  49.246
  10.649  49.049  10.756  49.034  12.372   48.86  12.619  48.838  14.398  48.904
   15.16  48.757  15.414   48.73   15.66  48.662  16.261  48.511    16.6  48.409
  16.682  48.394  16.957  48.346  17.256  48.304  18.117  48.252  18.977  48.219
  20.699   48.17  21.596  48.137  22.667   48.11  29.522  48.133  31.581  48.133
  33.387   48.14  37.116  48.137  39.563   48.15  43.233  48.157  45.738   48.15
  46.506  48.151  48.185  48.175  49.409  48.184  49.622  48.204  49.933  48.252
  50.035  48.268  51.154  48.468   51.56  48.545  51.917  48.605  52.314  48.686
  53.289  48.859  53.801  48.931  55.289  49.098  55.424  49.107  56.181  49.139
  56.876  49.065  57.662  48.959  58.264  48.875  58.363  48.873  58.562  48.877
  59.797  48.961   59.95  48.975  61.221  49.172  61.438  49.206  61.932  49.267
  62.926  49.399  64.475  49.479  64.512   49.48      66  49.482  66.203  49.476
  66.893  49.478  67.488  49.469  68.339  49.446  69.074   49.42  70.474  49.419
  70.562  49.417  71.157  49.409   72.05  49.462   72.61  49.499  73.339  49.562
  73.637  49.578  74.033  49.585  74.847  49.587  75.124  49.592   75.66  49.583
  76.982  49.542  77.604  49.497  78.101  49.481  78.199  49.479  79.118  49.475
  81.253  49.524  81.868  49.544  83.389   49.56  84.405  49.566  84.844  49.571
  86.133  49.602   87.66  49.691  88.315  49.722    90.1  49.873
#Mann= 4 ,-1,0
       0  .03333       0    16.6  .03333       0  49.933  .03333       0
    90.1  .03333       0
Bank Sta=16.6,49.933
XS Rating Curve= 0 ,0
XS HTab Starting El and Incr=48.26,0.11, 21 
XS HTab Horizontal Distribution= 5 , 5 , 5 
Exp/Cntr=0.3,0.1

Type RM Length L Ch R = 1 ,8192    ,23.667,22.633,22.733
XS GIS Cut Line=2
693744.9965098545769249.35200167693774.8631117465769322.75907138
Node Last Edited Time=Jun/21/2023 15:57:19
#Sta/Elev= 50 
       0   50.47     6.2   49.65     7.4   49.44     8.4   49.24       9   49.15
    10.5   48.95    12.7   48.79    14.9   48.72      17   48.98    17.9   48.82
    18.2    48.8    19.2   48.52    19.6  48.384    19.7   48.35      21   48.14
    21.3   48.11    25.7   48.14    36.6   48.14    38.6    48.2    38.848.23455
    40.8   48.58    41.2   48.67    42.7   48.95    44.2   49.17    45.1   49.24
    45.8   49.14    47.2   48.88    47.3   48.88    47.5   48.89    48.9   49.06
    50.4   49.38    51.9   49.62    53.5   49.68      55   49.67    55.9   49.62
    56.5   49.57    58.1   49.41    59.6   49.34    60.2   49.32    61.1   49.39
    62.4    49.5    62.7   49.51    64.2   49.48    66.7   49.29    67.3   49.28
      71   49.33      74   49.27    75.3   49.27    77.5   49.38    79.3   49.57
#Mann= 1 ,-1,0
       03.33E-02       0
Bank Sta=19.6,38.8
XS Rating Curve= 0 ,0
XS HTab Starting El and Incr=48.26,0.11, 20 
XS HTab Horizontal Distribution= 5 , 5 , 5 
Exp/Cntr(USF)=0,0
Exp/Cntr=0.3,0.1

Type RM Length L Ch R = 1 ,8169.33*,23.667,22.633,22.733
XS GIS Cut Line=2
693726.7646891315769263.62559816693753.9924748665769331.63508936
Node Last Edited Time=Jun/21/2023 16:03:12
#Sta/Elev= 87 
       0  50.137    .965   50.06   5.112  49.801   6.316  49.709   7.138  49.623
   7.538  49.579   8.557  49.452   9.168  49.396    9.26  49.389  10.696  49.246
  12.347  49.148  12.938  49.109  13.408   49.09  14.565  49.013  15.179  48.981
  15.433  48.994  17.318  49.096  17.555  49.062  18.235  48.944   18.54  48.913
  19.099  48.778  19.559  48.655  19.581  48.649  19.967  48.528  20.076  48.494
  21.409  48.226  21.504  48.213  21.833   48.18  25.127  48.203  25.184  48.203
  26.403  48.203  27.012   48.21  31.278  48.287  33.286  48.331   33.41  48.337
  34.784  48.398  34.933  48.423  35.271  48.481  36.828  48.716  36.846   48.72
  37.071  48.758  37.207   48.78  38.628  48.972  39.209  49.033  40.049  49.118
  40.901  49.162  41.565  49.093  42.891    48.9  42.986  48.899  43.175  48.903
  44.047  48.964  44.501  49.007  45.922  49.232  47.343  49.404  48.859  49.456
  48.885  49.457  49.222  49.452  50.235  49.467   50.28  49.467  51.133  49.442
  51.248  49.437  51.701    49.4  53.217  49.259   53.61  49.237  54.638  49.176
  55.206  49.147  56.059  49.171  56.086  49.172   57.29  49.252  57.574  49.261
  57.886  49.259  58.448  49.251  58.995  49.258  59.686   49.24  61.364  49.193
  61.374  49.193  61.932  49.204  63.286   49.26  64.862  49.275  65.437  49.285
  68.279  49.269  68.349   49.27  69.511  49.285   70.15  49.316  70.487  49.341
  71.595  49.379    73.3  49.503
#Mann= 4 ,-1,0
       0  .03333       0  19.967  .03333       0  34.933  .03333       0
    73.3  .03333       0
Bank Sta=19.967,34.933
XS Rating Curve= 0 ,0
XS HTab Starting El and Incr=48.33,0.1, 20 
XS HTab Horizontal Distribution= 5 , 5 , 5 
Exp/Cntr=0.3,0.1

Type RM Length L Ch R = 1 ,8146.67*,23.667,22.633,22.733
XS GIS Cut Line=2
693708.5328684085769277.89919465693733.1218379855769340.51110735
Node Last Edited Time=Jun/21/2023 16:03:12
#Sta/Elev= 86 
       0  49.803    .982  49.775   5.206  49.795   6.432  49.767   7.269  49.736
   7.677  49.718   8.714  49.665   9.337  49.642    9.43  49.639  10.893  49.543
  12.573  49.464  13.175  49.428  13.654  49.405  14.833  49.286  15.457  49.242
  15.717  49.237  17.636  49.213  17.878  49.186   18.57  49.067  18.881  49.025
  19.449  48.909  19.918   48.79   19.94  48.784  20.333  48.671  20.453  48.638
  21.905  48.298  22.008  48.286  22.367   48.25  24.554  48.267  24.592  48.267
  25.402  48.267  25.806   48.28  28.639  48.433  29.973  48.521  30.055  48.528
  30.967  48.596  31.067  48.612  31.385  48.665  32.856  48.852  32.873  48.855
  33.086  48.879  33.214  48.891  34.556  48.993  35.104  49.027  35.898  49.065
  36.703  49.084  37.329  49.047  38.582  48.921  38.671  48.918   38.85  48.916
  39.673  48.927  40.103  48.954  41.445  49.084  42.787  49.188  44.218  49.233
  44.242  49.233  44.561  49.226  45.517  49.263   45.56  49.264  46.365  49.264
  46.474  49.263  46.902   49.23  48.333  49.108  48.705  49.084  49.675  49.011
  50.212  48.974  51.017  48.951  51.043  48.951   52.18  49.005  52.449  49.012
  52.743  49.014  53.274  49.011  53.791  49.036  54.443  49.055  56.027  49.096
  56.564  49.128  57.843   49.22  59.331  49.227  59.874   49.24  62.558  49.269
  62.625   49.27  63.721    49.3  64.325  49.328  64.644  49.361   65.69  49.377
    67.3  49.437
#Mann= 4 ,-1,0
       0  .03333       0  20.333  .03333       0  31.067  .03333       0
    67.3  .03333       0
Bank Sta=20.333,31.067
XS Rating Curve= 0 ,0
XS HTab Starting El and Incr=48.4,0.08, 21 
XS HTab Horizontal Distribution= 5 , 5 , 5 
Exp/Cntr=0.3,0.1

Type RM Length L Ch R = 1 ,8124    ,28.7,26.75,23.45
XS GIS Cut Line=2
693690.3010461485769292.17279234693712.2511993465769349.38712608
Node Last Edited Time=Jun/21/2023 15:57:19
#Sta/Elev= 43 
       0   49.47       1   49.49     5.3   49.79     7.4   49.85     9.6   49.89
    12.8   49.78    13.9   49.72    15.1   49.56      16   49.48    18.2   49.31
    19.8   49.04    20.3   48.92    20.748.81524    22.4   48.37    22.9   48.32
      24   48.33    24.4   48.33    24.6   48.35      26   48.58    26.7   48.72
    27.248.80125    27.5   48.85    28.9   48.99    29.1      49      31   49.02
    33.1      49    35.3   48.89    39.6   49.01    39.9      49    40.8   49.06
    41.7   49.09    43.8   48.93      46   48.73    47.6   48.77    48.1   48.77
    49.2   48.87    50.7      49    52.4   49.18    53.8   49.18    56.9   49.27
    58.5   49.34    58.8   49.38    61.3   49.37
#Mann= 1 ,-1,0
       03.33E-02       0
Bank Sta=20.7,27.2
XS Rating Curve= 0 ,0
XS HTab Starting El and Incr=48.47,0.07, 20 
XS HTab Horizontal Distribution= 5 , 5 , 5 
Exp/Cntr(USF)=0,0
Exp/Cntr=0.3,0.1

Type RM Length L Ch R = 1 ,8097.50*,28.7,26.75,23.45
XS GIS Cut Line=2
693665.2922650465769306.92617399693692.639996899 5769361.6216377
Node Last Edited Time=Jun/21/2023 16:03:12
#Sta/Elev= 78 
       0   49.38    .959  49.371   1.776  49.385    3.03  49.435   5.082  49.534
   6.059   49.56   7.096  49.575   9.194  49.595   9.206  49.595  11.597  49.572
  12.274  49.582  12.955  49.586  13.329   49.59  14.104  49.566   14.48   49.54
  15.149  49.509  15.343  49.495  16.611  49.414  17.453  49.267  18.178  49.106
  18.987  48.909  19.014  48.902  19.466  48.786  19.746  48.712   19.85  48.685
  20.867  48.422  21.101  48.384   22.04  48.266  22.207  48.249    22.9   48.22
   23.77  48.238  24.086  48.243  24.244  48.256  25.351  48.388  25.905  48.466
  26.164  48.497    26.3  48.521  26.609  48.577   26.98  48.633  28.052  48.756
  28.259  48.775  28.339   48.78  29.893  49.043  30.217  49.091  30.767  49.167
  31.252  49.195  32.382  49.229  32.709  49.232  34.649  49.229   35.33  49.254
  36.884   49.33   38.34   49.39  39.082  49.412  39.391  49.412  40.319  49.457
  41.156  49.484  41.246  49.488  42.904  49.474  43.411  49.457  43.972  49.435
  44.555  49.405  45.679  49.307  46.885   49.27  47.328  49.271  47.844  49.267
  48.147  49.278  48.977  49.315  50.524   49.38  51.449  49.428  52.276  49.464
  53.719  49.453  56.012  49.467  56.915  49.481  58.564  49.519  58.873  49.539
  59.411  49.539  60.576  49.547   61.45   49.54
#Mann= 4 ,-1,0
       0  .03333       0   19.85  .03333       0    26.3  .03333       0
   61.45  .03333       0
Bank Sta=19.85,26.3
XS Rating Curve= 0 ,0
XS HTab Starting El and Incr=48.37,0.08, 21 
XS HTab Horizontal Distribution= 5 , 5 , 5 
Exp/Cntr=0.3,0.1

Type RM Length L Ch R = 1 ,8071    ,31.7,29.2,24.85
XS GIS Cut Line=2
693640.2834839445769321.67955565693673.0287944525769373.85614932
Node Last Edited Time=Jun/21/2023 15:57:19
#Sta/Elev= 40 
       0   49.29     1.7   49.22     2.9   49.23     5.8    49.3     8.8    49.3
    11.1   49.34    12.4   49.43    13.5   49.52    14.5   49.52    15.9   49.45
    17.4   49.03    18.2   48.77    18.9   48.58      1948.55429    20.3   48.22
    20.6   48.19    21.8   48.13    22.9   48.12    25.3   48.22    25.4   48.24
    26.1   48.38    27.5   48.56    29.1   49.07      30   49.32    30.5   49.38
      32   49.48    34.7    49.6    36.3   49.71    37.8   49.79    40.7   49.88
    42.5   49.98    43.6   49.99    44.2   49.98    46.6   49.78    47.9   49.76
    51.3   49.76      56   49.69    59.5    49.7    60.7   49.72    61.6   49.71
#Mann= 1 ,-1,0
       03.33E-02       0
Bank Sta=19,25.4
XS Rating Curve= 0 ,0
XS HTab Starting El and Incr=48.27,0.09, 20 
XS HTab Horizontal Distribution= 5 , 5 , 5 
Exp/Cntr(USF)=0,0
Exp/Cntr=0.3,0.1

Type RM Length L Ch R = 1 ,8042.00*,31.7,29.2,24.85
XS GIS Cut Line=2
693610.9566399185769336.07309873693653.5975112935769388.60953097
Node Last Edited Time=Jun/21/2023 16:03:12
#Sta/Elev= 82 
       0  49.555   2.049   49.52   2.393  49.521   3.162  49.514   3.495  49.505
   6.991   49.44   7.178  49.435   8.801   49.37   9.656  49.355  10.606   49.38
  13.244  49.469  13.378  49.472  14.945  49.545   15.21  49.559  16.271  49.598
  16.833    49.6  17.476  49.592  17.602  49.587  18.115  49.562  18.542  49.528
  19.164  49.467  19.311  49.438   20.08  49.264  20.507  49.149  20.972  49.006
  21.936  48.692  22.473   48.53  22.779  48.452    22.9  48.422  23.574  48.278
  23.933  48.211  24.172   48.19  24.787  48.156  25.126  48.141      26  48.125
  28.178  48.162  29.033  48.195   29.36  48.223    29.5  48.243  29.782  48.286
  30.246  48.389  30.536  48.442  31.739  48.704  32.419  48.912  33.266  49.133
  33.445  49.181  33.737  49.253  34.301  49.367  34.405  49.385  34.938   49.44
  35.902  49.515  36.538   49.56  38.538  49.682  39.103  49.708  39.417  49.717
  40.421  49.757  41.123  49.761  41.174  49.761  42.722    49.8   43.81  49.816
  44.375  49.814  45.814  49.788  47.105  49.779   47.67  49.783  47.734  49.784
  48.907  49.778  49.177  49.773  49.546  49.772  52.106  49.685  53.037  49.683
  53.492  49.688  55.108  49.715  57.117  49.737  58.309  49.742  59.062  49.736
  61.698  49.703  62.129   49.69  63.675  49.657  65.861  49.656  66.405  49.659
   67.14  49.656    68.1   49.64
#Mann= 4 ,-1,0
       0  .03333       0    22.9  .03333       0    29.5  .03333       0
    68.1  .03333       0
Bank Sta=22.9,29.5
XS Rating Curve= 0 ,0
XS HTab Starting El and Incr=48.28,0.09, 19 
XS HTab Horizontal Distribution= 5 , 5 , 5 
Exp/Cntr=0.3,0.1

Type RM Length L Ch R = 1 ,8013    ,27.9,25.4,20
XS GIS Cut Line=2
693581.6297958915769350.46664181693634.1662281345769403.36291263
Node Last Edited Time=Jun/21/2023 15:57:19
#Sta/Elev= 47 
       0   49.82     2.8   49.82     3.7    49.8     8.4   49.57    10.3   49.44
    11.3   49.41    15.5    49.6    17.8   49.67    19.7   49.68    20.6   49.66
    21.2   49.63    21.7   49.58    22.6   49.46    23.5   49.29      24   49.16
    26.3   48.41    26.8   48.29    27.3   48.22    28.2   48.16    29.1   48.13
    31.9   48.14      33   48.18    33.648.24667    33.9   48.28    34.7   48.47
    36.7   49.06    37.6   49.25    38.1   49.36    38.7   49.44    40.4   49.59
    43.2    49.8    43.8   49.83    45.2   49.85      46   49.81    48.8   49.81
    49.4   49.79    52.3   49.61    52.9   49.59    54.5   49.56    58.6    49.6
    60.8   49.67    64.2   49.74      65   49.74    67.8   49.71    69.9   49.62
    72.8   49.61    74.6   49.57
#Mann= 1 ,-1,0
       03.33E-02       0
Bank Sta=26.8,33.6
XS Rating Curve= 0 ,0
XS HTab Starting El and Incr=48.28,0.08, 20 
XS HTab Horizontal Distribution= 5 , 5 , 5 
Exp/Cntr(USF)=0,0
Exp/Cntr=0.3,0.1

Type RM Length L Ch R = 1 ,7987.50*,27.9,25.4,20
XS GIS Cut Line=2
693560.7591584245769370.07784425693618.6931693235769415.23758567
Node Last Edited Time=Jun/21/2023 16:03:12
#Sta/Elev= 88 
       0    49.7   1.281  49.695   2.633  49.655    2.99  49.641   3.479  49.613
   5.019  49.505   6.193  49.429    6.62  49.418   7.154  49.419   7.899  49.435
   8.115  49.437   8.649  49.458   9.685  49.502   9.717  49.504  10.625  49.557
  11.212  49.614  11.425  49.624  13.668  49.698  14.575    49.7   15.91  49.692
  16.737  49.683  18.524  49.641   18.58  49.639   19.37  49.613  19.934  49.586
  20.404  49.551  21.142  49.483  21.251  49.464  22.097  49.292   22.21  49.264
  22.567  49.167   24.73  48.498    25.2  48.374  25.287  48.355  25.787  48.264
  25.897  48.247  26.506  48.195  26.843   48.18    27.9   48.15  29.368  48.163
  30.417    48.2  30.576  48.204  31.627  48.249  31.676  48.253    32.2  48.315
  32.396  48.339  32.507  48.362  32.787  48.438  33.324  48.601  33.766  48.749
  35.039  49.138  35.235  49.196  35.368  49.231  35.529  49.267  36.288  49.382
  36.799  49.461  37.291  49.517  37.412  49.528  39.149  49.643  39.444  49.661
  40.913  49.695  42.011  49.707  42.624  49.706   43.85  49.684  44.055  49.681
  44.872  49.647  46.395   49.62  47.734  49.587  48.347  49.562  48.647  49.546
  50.996  49.455   51.31  49.444  51.924  49.433  53.248  49.418  53.559  49.418
  56.674   49.46  57.749  49.464  59.997  49.497  62.548  49.521  63.472  49.545
  63.821   49.55  64.289  49.552  66.366  49.549  67.151  49.555  69.297  49.538
  70.184  49.549   72.26   49.55    74.1  49.535
#Mann= 4 ,-1,0
       0  .03333       0    25.2  .03333       0    32.2  .03333       0
    74.1  .03333       0
Bank Sta=25.2,32.2
XS Rating Curve= 0 ,0
XS HTab Starting El and Incr=48.3,0.08, 20 
XS HTab Horizontal Distribution= 5 , 5 , 5 
Exp/Cntr=0.3,0.1

Type RM Length L Ch R = 1 ,7962    ,23.1,24.1,25.25
XS GIS Cut Line=2
693539.888520957 5769389.6890467693603.2201105115769427.11225871
Node Last Edited Time=Jun/21/2023 15:57:19
#Sta/Elev= 46 
       0   49.58     1.2   49.57     2.8   49.47     4.7   49.29     5.8    49.2
     6.2    49.2     6.7   49.23     7.6   49.32     8.1    49.4     9.1   49.57
    10.5   49.79    10.7    49.8    12.8   49.84    14.9   49.74    17.4    49.6
    19.8   49.49    20.8   49.27    23.648.45897    23.7   48.43    24.4   48.28
    25.1   48.21    26.7   48.17    28.1   48.19    29.1   48.26    30.3   48.32
    30.848.38428      31   48.41    31.4   48.53    32.4    48.9    33.7   49.31
    33.9   49.37    34.2   49.44      36   49.61    38.2   49.71    39.7   49.67
    42.7   49.52    45.3   49.43    47.6   49.32      50   49.28    52.3   49.27
    55.8   49.33    61.8   49.32    63.1   49.36    65.7   49.38    69.6   49.48
    73.6    49.5
#Mann= 1 ,-1,0
       03.33E-02       0
Bank Sta=23.6,30.8
XS Rating Curve= 0 ,0
XS HTab Starting El and Incr=48.32,0.08, 20 
XS HTab Horizontal Distribution= 5 , 5 , 5 
Exp/Cntr(USF)=0,0
Exp/Cntr=0.3,0.1

Type RM Length L Ch R = 1 ,7938.00*,23.1,24.1,25.25
XS GIS Cut Line=2
 693531.072475825769411.09944204693588.1068902775769447.08329974
Node Last Edited Time=Jun/21/2023 16:03:12
#Sta/Elev= 75 
       0  49.485   1.034  49.485   1.063  49.484    2.48  49.377   2.641  49.361
   4.162  49.249   4.364  49.236   5.136  49.213   5.491  49.219   5.933  49.241
   6.731  49.299   7.173  49.346   7.694  49.405   8.059   49.45   9.187   49.58
   9.299   49.59   9.476  49.594  10.909  49.605  11.336  49.617  12.058  49.611
  13.195  49.551  13.436  49.537  14.814  49.454  15.409  49.404  17.535  49.237
   17.57  49.231   18.42  49.026  20.326  48.493    20.9  48.369  20.981  48.352
  21.545  48.258   22.11  48.204    23.4   48.14  25.141  48.159  26.385    48.2
  27.497  48.227  27.878  48.234    28.5  48.265  28.682  48.277  29.047  48.336
  29.958   48.52  31.143  48.723  31.325  48.752  31.598  48.787  32.489  48.831
  33.238  48.883  33.929  48.912  35.243  48.992  35.591      49  36.145  49.027
   36.61   49.06  37.142   49.09  38.693  49.123  39.343  49.115  41.713  49.107
  41.906  49.105  43.808  49.127  44.011  49.133  45.119  49.138  45.995   49.13
  48.091  49.125  48.332  49.127   51.28  49.238  51.878  49.254  53.983  49.258
  54.648  49.252  56.642  49.215  56.748  49.215  57.932  49.236  60.301  49.249
  61.074  49.261   61.96  49.268  63.622  49.267  63.855  49.269    67.5  49.265
#Mann= 4 ,-1,0
       0  .03333       0    20.9  .03333       0    28.5  .03333       0
    67.5  .03333       0
Bank Sta=20.9,28.5
XS Rating Curve= 0 ,0
XS HTab Starting El and Incr=48.29,0.07, 20 
XS HTab Horizontal Distribution= 5 , 5 , 5 
Exp/Cntr=0.3,0.1

Type RM Length L Ch R = 1 ,7914    ,13.7,19.85,28.75
XS GIS Cut Line=2
693522.2564306835769432.50983737693572.9936700425769467.05434076
Node Last Edited Time=Jun/21/2023 15:57:19
#Sta/Elev= 34 
       0   49.39      .9    49.4     2.3   49.27     3.8    49.2     6.7   49.31
       8   49.39     9.5   49.38    10.5   49.42    11.7   49.35    12.9   49.27
    15.3   48.98    17.7   48.34    18.2   48.28    20.1   48.11      25   48.15
    26.2  48.145    29.8   48.13    31.1   48.18    32.6    48.3    33.1   48.37
      34   48.54    35.4   48.69    38.3   48.79    40.2   48.95    41.2   48.98
    44.1   48.98    47.3   49.18    49.2   49.19    49.8   49.18    51.6   49.11
    55.6   49.12    56.4   49.11    57.9   49.06    61.4   49.03
#Mann= 1 ,-1,0
       03.33E-02       0
Bank Sta=18.2,26.2
XS Rating Curve= 0 ,0
XS HTab Starting El and Incr=48.26,0.06, 20 
XS HTab Horizontal Distribution= 5 , 5 , 5 
Exp/Cntr(USF)=0,0
Exp/Cntr=0.3,0.1

Type RM Length L Ch R = 1 ,7894.00*,13.7,19.85,28.75
XS GIS Cut Line=2
693511.2813540845769438.62709318693552.1230325755769487.38522036
Node Last Edited Time=Jun/21/2023 16:03:12
#Sta/Elev= 79 
       0   49.38   1.068  49.329   1.901  49.252    2.73  49.194   3.197  49.171
   4.234  49.115    4.51  49.091   5.098  49.059   6.134  49.036   7.085  49.066