Geom Title=Elbe-Umflut-Kanal
Program Version=6.40
Viewing Rectangle= 687498.36447852 , 694413.793692553 , 5773319.3535577 , 5768832.39099276 

River Reach=Elbe-Umflut     ,Elbe-Umflut-Reac
Reach XY= 58 
 693894.108007835769235.16119617693749.6600576475769284.81517905
693620.2587689415769360.04848643693555.5581245885769410.45480238
693536.7497977415769454.84245374693472.8014864625769489.44977514
693384.0261837455769468.38444907693295.2508810285769499.98243817
693195.1905822045769536.09442572693014.6306444745769581.98674323
692871.6873604395769566.94008175692781.4073915745769486.44044284
  692697.14608735769383.37081172 692607.61845151 5769231.3995308
692483.4834943215769164.44188723692359.3485371325769141.87189501
692257.7835721595769167.45121952692093.0226289815769232.90419695
692013.2753231515769293.09084286691957.6026756845769399.92213935
691920.7383550655769594.02407241691926.7570196565769668.50504672
691953.0886772415769710.63569886691889.140365962 5769902.4806327
691802.6220624675770064.23224358 691793.594065585770174.82520544
691801.1173963195770316.26382332691749.9587472965770453.94077584
691722.1224235625770640.51937816691728.1410881535770798.50932368
691656.6694461365770930.91994468691588.207136413 5770996.3729221
691462.5675130775771037.75124117691315.8625636725771093.42388863
691187.9659411145771150.60120225691136.0549590165771240.12883804
691066.0879831465771341.69380301690969.0370166175771453.79143102
690868.2243847185771538.80506837690762.1454213025771568.89839132
690657.5711240345771526.76773918690572.5574866865771522.25374074
690492.8101808565771565.88905902690362.6565590765771628.33270416
690245.2925995525771696.79501388690088.8073201875771783.31331737
 689939.845371565771859.29895784689799.159086746  5771932.275266
689652.4541373415772000.73757572689518.5388501925772069.95221852
 689356.78723931 5772151.2041905689202.5589591665772230.19916325
688983.6300346695772337.78279282688751.9114479175772463.42241615
688455.4922168115772608.62269941 688216.250299325772744.79498578
688066.5360176195772849.36928305687912.3077374765772941.15391806
Rch Text X Y=,
Reverse River Text= 0 

Type RM Length L Ch R = 1 ,8248    ,209.7,176.3,103.4
XS GIS Cut Line=3
 693803.901952935769085.66049402693917.2484538415769442.76291087
694099.4560010065769828.50664785
Node Last Edited Time=Jun/21/2023 19:55:12
#Sta/Elev= 335 
       0   52.39     1.5   52.42       2   52.49     3.5   52.81     5.1   53.27
     5.7   53.41     6.7   53.41     7.8   53.38     9.9   52.89      12   52.25
    14.1   51.67    16.2   51.01    16.5   50.95    20.4   50.37    21.1   50.29
    22.5   50.09    23.1   50.05    24.6   49.93    26.7   49.88    28.8   49.93
      33   50.18    35.4   50.27    37.2   50.36    39.3   50.44    45.6   50.59
    49.8   50.59    51.9   50.61      54   50.66    58.2    50.8    60.3   50.78
    62.5   50.69    64.1   50.68    64.5   50.68    66.6   50.91    67.3   50.91
    68.7   50.84    70.8    50.7      75   50.71    78.4   50.82    81.3   50.87
    83.4   50.84    85.5   50.68    86.4   50.65      88   50.64    89.7   50.51
    91.7   50.55    93.8   50.63    95.9   50.63   100.1   50.49   102.2   50.39
   104.3   50.31   108.5    50.3   113.4   50.22   114.8   50.23   115.7   50.26
   116.9   50.34     119   50.54   121.4   50.68   123.2   50.73   125.3   50.67
   127.4   50.66   131.6   50.55     136   50.34   137.3    50.3   137.550.28333
   137.9   50.25   138.9   50.07     140   49.84   142.1   49.27   144.2   48.52
   145.3   48.34   146.3   48.19   146.9   48.16   148.4   48.15   150.5   48.16
   162.8   48.12   175.2   48.14   181.9   48.13   186.7   48.17   196.7   48.15
     209   48.16     21148.15583   213.8   48.15   215.6   48.17   217.6   48.44
   218.6   48.75   219.7   49.18   221.5   49.68   221.8   49.75   221.8   49.77
   223.9    49.7   226.5    49.5   228.1   49.41   229.7   49.35   231.3   49.34
   232.3   49.31   232.9   49.34   234.4   49.34   234.7   49.37   236.5   49.72
   238.6   50.07   242.5   50.15   244.9   50.15     247   50.26   249.1   50.51
   251.2   50.54   253.3   50.44   255.4    50.4   256.8   50.47   257.5   50.52
   258.4   50.65   259.6    50.9     260   50.86   261.1    50.7   261.6    50.6
   263.2   50.33   263.8   50.26   265.9   50.32   268.1    50.3   269.5   50.33
   270.1   50.32   271.1   50.25   272.2   50.22   274.3   50.23   275.9   50.22
   278.5   50.12   280.6   50.14   282.7   50.43   284.8   50.69   286.9   50.73
   288.6    50.7     289   50.68   290.2   50.55   291.1   50.44   293.4      50
     295   49.76   296.6   49.61   297.4   49.55   299.8   49.61   301.4   49.61
   307.9   49.52   310.9   49.63   314.2   49.77   316.3   49.79   320.5   49.75
   322.6   49.67   324.7   49.55   326.8   49.48   327.2   49.48   328.9    49.5
   331.7   49.58   333.1   49.61   335.2   49.76   337.3   49.84   339.4   49.89
   341.2   49.95   343.5   49.98   349.2      50   354.2   49.87   358.2   49.72
   360.3   49.61   362.4    49.6   364.5   49.62   366.6    49.6   372.9   49.42
   374.7   49.44   377.3   49.43   381.7   49.35   390.5   49.24   399.4   48.99
   401.6   48.99   403.8   49.11     406   49.08   408.2   49.02   412.6   48.95
   417.1   48.91   425.4   48.91   428.1   48.97   430.3   49.07   434.8   49.02
   441.4   48.98   443.6   48.98     448   49.16   449.8   49.19   452.5   49.15
   454.7   49.05   455.8   48.98   456.9   48.94   459.1   49.11   461.8   48.97
   463.5   48.93   464.8   48.87   465.7   48.86   467.9   48.71   469.3   48.59
   470.2   48.54   470.8   48.53   472.5    48.4   473.8   48.38   474.6   48.31
   476.8   48.27   478.3   48.32   481.2   48.26   482.8   48.28   485.6   48.27
   487.3   48.28   488.8   48.27   490.1   48.27   490.9    48.3   492.3   48.33
   495.6   48.24   497.8   48.23   500.3   48.21   501.1   48.21   503.3   48.24
   505.5   48.31   507.8    48.3     510   48.24   517.4   48.26   518.8   48.25
     521   48.21   526.4   48.18   533.1   48.22   538.4   48.19   543.1   48.23
   547.6   48.18   549.8   48.22   551.8   48.23   556.4   48.23   560.8   48.19
   565.3   48.25   567.5    48.2   571.9   48.24   589.2   48.24   592.5   48.22
   607.3   48.27   611.7   48.32   613.9   48.31   616.1   48.25     618   48.22
     621    48.2   626.7   48.22   631.6    48.2   640.5    48.2   645.4   48.24
   647.1   48.23   649.3    48.2   664.8   48.19   669.2   48.23   673.6   48.22
   675.9   48.27   678.1   48.34   679.6   48.26   680.3   48.24   681.1   48.38
   682.1   48.93   682.5   49.08   682.6   49.12   682.9   49.37   684.1   50.27
   684.7   51.02   685.6   53.94   686.3   55.58   686.9   57.15   687.1   56.39
   687.6   55.15   688.6   51.13   689.1   50.32   690.1   49.16   690.5    48.5
   691.3   47.24   691.6   47.17   692.3   47.28   693.1   50.34   693.6   52.17
   694.6   52.27   694.7   51.94   695.8   48.47   696.1   48.56     697   48.84
   697.7    49.2     698   49.21   699.2   49.34   700.7   49.48   701.6   49.69
   702.4   49.82   703.7   49.79   704.6   49.81   705.2   49.87   706.3   50.05
   706.7   50.09   706.8   50.13   708.2   50.22     709   50.33   711.3   50.41
   715.7   50.49   719.9   50.59   722.3    50.6   724.5    50.6   726.7   50.49
   728.9   50.44   731.2   50.31   733.7   50.28   736.6   50.23   737.8   50.23
   739.1   50.29   742.7   50.37   748.9   50.63   753.3    50.9   755.5   51.07
   756.2   51.09   757.7   51.17   759.2   51.34   759.9   51.38   762.5   51.32
   766.5   51.39   768.8   51.49   771.9   51.79   775.4   52.03   775.8   52.06
   776.6   52.16   777.6   52.31   778.8   52.42   779.8    52.5   784.2   52.57
   784.8   52.56   786.5    52.6   788.7   52.54   790.8   52.45   792.3    52.5
   793.8   52.51   795.3   52.45   797.5   52.43     800   52.43   801.3   52.45
#Mann= 1 ,-1,0
       0   -9999       0
Bank Sta=137.5,211
XS Rating Curve= 0 ,0
XS HTab Horizontal Distribution= 5 , 5 , 5 
Exp/Cntr(USF)=0,0
Exp/Cntr=0.3,0.1

Type RM Length L Ch R = 1 ,8072    ,105.7,114.4,170.9
XS GIS Cut Line=4
693606.3850365955769159.76667437693653.857356758 5769295.9915931
693808.6584007675769377.52014294693926.3071942145769823.34714969
Node Last Edited Time=Jun/21/2023 19:55:38
#Sta/Elev= 342 
       0      53     1.4   53.07     5.7   52.96     6.2   52.87     7.8   52.67
     9.9   52.02      12   51.28    13.7   50.76    14.4   50.63    15.6   50.43
    16.2    50.3    17.2   50.24    17.6   50.15    18.4   50.04    18.7   50.06
    20.5   49.93    21.9   50.04    22.6   50.08    24.7   50.05    26.8   49.97
      32   49.86    33.2   49.85    39.5   49.88    42.3   49.91      48   50.02
    52.3   50.14    53.3   50.15    56.5   50.17    60.7   50.17      65   50.22
    67.1   50.22    71.3   50.29    83.1   50.42    90.4   50.41    96.7   50.31
     101   50.34   107.3   50.32   111.6   50.53   115.8   50.62   117.7    50.7
   119.3    50.8   122.4   51.14   124.3   51.23   126.4   51.18   129.2   51.14
   130.6   51.09   132.7   50.68   133.4   50.58   134.9   50.39   136.5   50.24
     137   50.22   139.1   50.31   139.7   50.31   141.2   50.27   144.3   50.15
     14550.12455   145.4   50.11   147.7   50.13   150.3    49.9   153.3   49.56
   154.7   49.43   156.2   49.42   156.7   49.44   157.7   49.44   159.5   49.41
   160.7   49.36   163.5   49.27   165.8   49.13   166.6   49.12   168.1   49.14
   170.3   49.26   172.4   49.24   174.8    49.1     181   48.82   184.4   48.76
   186.1   48.67   187.3   48.46   188.4   48.25   188.8   48.21   189.6   48.16
   190.6   48.21   192.9   48.59   193.9   48.78   194.7   48.89   195.2   48.94
   197.4   49.02   199.7   48.98   200.6   49.01   202.1   49.09   203.6   49.12
   204.2   49.16   205.1   49.14   206.5   49.15     208   48.98   208.7   48.95
   209.5   48.96     211   49.05   212.5   49.32   213.3   49.44     214   49.51
   215.5   49.54   217.8   49.63   221.4   49.69   224.6   49.79   226.8   49.81
   227.3    49.8   228.8    49.7   231.7   49.47   233.2   49.46   233.6   49.48
   234.7    49.6   235.9   49.77   236.2   49.81   236.8   49.84   237.7   49.84
   239.1   49.91   240.6   49.91   242.1   49.93   243.6   50.01   244.9   50.12
   245.4   50.12   247.2   49.96     248   49.83   249.5   49.67   251.7   49.64
   253.9   49.87   256.2   49.89   258.5   49.64   260.7   49.72   265.2   49.56
   266.8   49.58   269.8   49.53   271.7   49.54   273.2    49.5   274.3   49.44
   275.4   49.34   278.8   49.25   279.1   49.29   279.7   49.32   280.6   49.41
   283.3   49.31     284    49.3   286.5   49.38   288.3    49.4   289.5   49.46
     291    49.5   292.6   49.52   293.9   49.63   294.6    49.7   295.4   49.83
   296.9   50.14   298.4    50.2   299.1   50.21   301.4    50.2   303.7   50.26
   305.9   50.25   310.4    50.1   312.7   49.46     315   48.63   317.2   48.42
   317.6   48.53   319.2   49.07   320.2   49.17   321.949.29364   322.4   49.33
   322.9   49.36     325   49.43     328   49.83   328.9   49.88   331.2   49.94
   332.2   49.99   333.3   50.07   335.3   50.04   337.4   49.99   338.7   50.07
   340.4   50.15   341.5   50.18   345.3    50.1   347.8   50.12   348.5   50.09
   349.8      50   351.9   49.71   353.4   49.65     354   49.64     356   49.74
   358.1   49.72   360.5    49.6   361.6   49.51   362.2   49.49   364.9   49.31
   366.4   49.19   368.4   49.09   370.5   49.03   372.6   49.03   374.6   49.05
   376.4   49.03   380.8   48.84   382.9    48.8     385    48.7   387.1    48.4
   389.1   48.23   391.4   48.28   393.3   48.28   395.3   48.23   399.5   48.26
   403.6   48.25   405.8   48.26   411.9   48.23   413.9   48.24     416   48.23
   422.2   48.27   430.5   48.27   437.7   48.21   442.9    48.2   451.2   48.24
   455.3    48.2   457.4   48.24   459.5    48.3   461.5    48.3   465.7    48.4
   467.7   48.46   471.9    48.5   477.8   48.62   482.2   48.77   482.7   48.75
   484.8   48.76   486.3   48.72   488.4   48.51   492.5   48.56   498.8   48.53
   500.8   48.44   502.9   48.38     505   48.39   505.7   48.38   509.1   48.26
   515.3   48.26   519.4   48.36   521.5   48.32   523.6   48.25   525.6   48.21
   528.6   48.28   530.2    48.3   531.9   48.37   533.5   48.36     536    48.4
     540   48.42   542.2   48.37   544.3   48.28   544.9   48.33   546.3    48.4
   548.4   48.63   550.5   48.72   552.5    48.7   554.6   48.71   556.7    48.8
   558.7   49.02   560.8   49.41   562.9   49.66     567   49.72   569.1   49.72
   571.1   49.75   577.4   50.02   581.5   50.29   585.6   50.52   587.5   50.56
   589.8   50.65   593.9   50.75     596   50.87     598   50.95   600.1      51
   604.2   51.04   608.4   51.04   610.5   51.07   612.5   51.13   614.6   51.12
   616.7   51.11   624.9   50.97   626.8   50.97   629.1   50.94   631.1    50.9
   633.2   50.81   635.3   50.75   637.3   50.91   639.4   50.97   641.5   51.01
   645.6   51.13     648   51.17   649.7   51.17   653.9   51.12     656   51.07
   658.3   50.99   662.2    50.8   664.2   50.81   666.3   50.72   668.4   50.51
   670.4   50.47   674.2   50.52   678.7   50.48   680.7   50.42   682.8    50.3
   684.9   50.22   688.9   50.23   691.1    50.2   693.2    50.2   695.5   50.13
   699.4   50.11   703.5   50.18   705.6   50.19   707.7   50.17   713.5   50.26
   715.9   50.32     718   50.41   722.1   50.54   724.2   50.65   726.3   50.81
   730.4   51.21   734.8   51.45   736.6   51.59     738   51.67   738.7   51.69
   741.3   51.93     749    52.8   749.5   52.78   751.1   52.66   755.2   52.75
   757.3   52.82   759.4    53.2     761   53.63   761.4   53.74   762.6   53.88
   763.5   54.01   765.6   54.01   767.7   53.94   769.7   54.02   771.8   53.66
   773.9   52.98   774.8   52.92   775.7    52.9   775.9   52.86   777.3   52.85
     778   52.82   780.3   52.77
#Mann= 1 ,-1,0
       0   -9999       0
Bank Sta=145,321.9
XS Rating Curve= 0 ,0
XS HTab Horizontal Distribution= 5 , 5 , 5 
Exp/Cntr(USF)=0,0
Exp/Cntr=0.3,0.1

Type RM Length L Ch R = 1 ,7958    ,131.3,227,268.8
XS GIS Cut Line=4
693491.8322640285769206.20698757693582.6488765135769346.55993414
  693688.94559345769573.60146535693702.3616838815769708.79437712
Node Last Edited Time=Jun/21/2023 19:55:54
#Sta/Elev= 249 
       0   52.93     1.1   53.31     1.4   53.28       2   53.15     2.9   52.88
     5.8   51.72     7.2   51.22     8.2   50.87     8.7   50.76     9.3   50.62
    10.1   50.47    10.6    50.4    11.6   50.35      13    50.3    14.4   50.22
    17.8   49.92    20.1   49.84    23.1    49.8    29.7   49.77    34.4   49.83
    38.8   49.92    40.5   49.92    44.8   50.02    48.7   50.08      52   50.12
    57.2   50.14      63   50.27    69.4   50.28    79.7   50.34    88.2   50.35
    89.2   50.34    91.6   50.29    98.3   50.19   105.9   50.18     113   50.27
   119.8   50.45   123.5   50.48   127.3   50.57   130.1   50.56   132.1   50.57
   135.9   50.86   136.9   50.92   138.2   50.95   139.2   50.95   141.7   50.88
     144   50.83   146.4   50.86   148.8   50.91   150.4   50.85   153.5   50.82
   160.5   50.59     162   50.47   163.1   50.35     164   50.21   165.4   50.09
   166.3   50.04   167.2  49.938   167.8   49.87   169.3   49.81     170    49.8
   170.8   49.82   172.3   49.83   173.8   49.78   178.8   49.55   179.8   49.46
     181   49.38   181.9   49.39   182.8   49.43   185.4   49.56   187.7   49.61
   189.9   49.61   191.4   49.56   192.1   49.51   193.3    49.3   194.3   49.09
   196.5   48.44   197.9   48.23   198.7   48.16   199.4   48.15   200.9   48.16
   202.4   48.33   203.1   48.49   203.9   48.69   205.5   49.17   206.9   49.49
   207.5    49.6   209.7   49.78   211.4   49.87   211.9   49.89   214.4   49.92
   216.4    49.9   218.6   49.84   219.7   49.79   220.8   49.69   221.9    49.7
     223   49.73   223.4   49.72   224.4   49.75   225.2   49.75   226.4   49.72
   227.4   49.72   231.8   49.77   232.5   49.75   233.8   49.68   235.5   49.54
   236.2    49.5   238.5   49.48   241.5   49.52   247.5   49.53   249.5   49.56
   253.9   49.52     255   49.53   256.1   49.56   258.3   49.67   260.5   49.76
   262.7   49.81   266.8   49.48   267.5   49.48   268.6   49.51   269.4   49.48
   270.1   49.48   271.5   49.44   273.8   49.42     276   49.01   278.2    48.3
   280.4   48.17   282.6    48.2   284.8   48.18     287   48.46   288.1    48.7
   289.2   48.92   291.1   49.16   291.4   49.22   293.7   49.26   295.6   49.21
   298.1   49.18   302.5   49.17   304.7   49.08   306.9   48.94   307.7   48.93
   309.2   48.95   311.3   49.05   313.7   49.19   315.7   49.11   317.9   49.06
   320.2    49.1   321.2   49.08   322.7    49.1   323.4   49.08   324.6   49.01
   326.8   48.94     329   48.88   330.2    48.9   331.2   48.87   333.2   49.06
   335.6   49.22   337.7   49.25     340   49.41   342.2   49.42   344.4   49.08
   345.3   49.06   346.8   49.05   356.4   49.05   359.9   49.13   364.3   49.29
   365.9   49.29   369.3   49.21   370.8   49.19   373.2    49.2   377.6   49.16
   379.8   49.17   384.2   49.35   386.4   49.38   388.6   49.36   390.8   49.42
   391.9   49.42     393   49.41   399.4   49.28   401.9   49.15   403.6   49.15
   404.1   49.16   406.3    49.3   407.749.32545   408.5   49.34   410.7   49.41
     413   49.52   415.1   49.57   421.4   49.84   423.4   49.97   425.4   50.35
   427.4   50.45   429.4   50.38   431.4   50.48   433.5   50.65   435.5   50.65
   437.5    50.6   439.7   50.62   443.5   50.55   447.5   50.37   449.5   50.46
   450.3   50.52   450.8   50.58   451.5   50.64   452.1   50.66   453.1   50.77
   453.9   50.81   455.8   50.85   459.6   50.76   461.6   50.92   463.6   51.22
   465.6   51.38   467.6   51.42   471.6   51.26   474.1   51.26   479.5   51.19
   485.7   51.18   487.7   51.06   489.7   50.97   491.7   50.72   493.7   50.51
   495.8   50.37   497.8    50.3   501.8   50.08   503.8   50.02   507.8   50.01
   509.8   50.05   513.8   50.22   515.9    50.4   517.9    50.6   519.9   50.83
   521.9   51.13   523.9   51.48   525.3   51.82   525.9   51.97   527.9   52.33
   528.9    52.3   529.9   52.29   531.9   52.14   532.6   52.17   533.4   52.18
   533.9   52.21     536   52.37   537.9   52.47     540   52.47     542   52.54
   543.5   52.75     546   52.97     548   52.98   553.7   53.43
#Mann= 1 ,-1,0
       0   -9999       0
Bank Sta=167.2,407.7
XS Rating Curve= 0 ,0
XS HTab Horizontal Distribution= 5 , 5 , 5 
Exp/Cntr(USF)=0,0
Exp/Cntr=0.3,0.1

Type RM Length L Ch R = 1 ,7731    ,215.3,198.9,172.9
XS GIS Cut Line=4
693384.5035401825769239.23121029693431.9758603445769382.68017774
693412.3677281035769552.96132615693466.0320900265769815.09109401
Node Last Edited Time=Jun/21/2023 19:56:04
#Sta/Elev= 239 
       0    50.8      .2   50.85     1.3   51.18       2   51.42     4.1   52.54
       5   52.88     5.5   53.02     6.2   53.26     6.6   53.24     8.1   53.01
     8.3   52.97     9.7   52.45    12.5   51.36    12.9   51.19    14.6   50.45
      16   50.27    16.7    50.2    18.8   50.09    20.9   49.91    22.4   49.91
    25.2   49.82    29.4   49.71    31.5   49.68    35.7   49.69    44.1   49.83
    48.3   49.95    50.4   49.97    54.6   50.04      61   50.03    63.5   50.04
    65.2   50.05    67.3   50.09    71.3   50.11    73.6   50.15    77.7   50.18
      82   50.13    84.1   50.08    86.2   50.06    90.5   50.07    92.6   50.03
    94.7   49.96    96.8   49.94     101   49.97   103.1   50.02   112.6    50.4
   115.7   50.49   117.8   50.74     120   50.69   122.1   50.72   124.2   50.97
   126.3   51.09   128.4   50.95   130.5   50.88   132.6   50.89   134.9   50.89
   139.5   50.78     141   50.73   143.1   50.61   147.3   50.25   149.4   49.89
   151.5   49.58     153   49.52   153.5    49.5   155.6   49.49   159.6   49.43
   161.6   49.43   163.6   49.36   165.1   49.22   166.9   49.08   169.7   48.89
   173.1   48.81   174.1   48.82   177.7   48.91   179.5      49   181.7   49.18
   183.2   49.27   185.8   49.39     189    49.4   193.8   49.34   195.9   49.17
   197.8   49.07   201.9    49.3   203.9   49.28   205.9   49.12   206.6   49.14
   207.2   49.19   207.9   49.21   209.9   49.38   214.1   49.39     218   49.23
     220   49.25     222   49.38     224   49.45     226   49.21     228   48.75
     230   48.47   232.3   48.33   233.7    48.3   236.1   48.22   237.3    48.2
   240.1    48.2   242.1   48.34   244.1   48.34   246.2   48.19   248.1   48.17
   266.2   48.16   268.3   48.18   276.4   48.15   278.4   48.17   280.4   48.29
   282.4   48.57   284.4    48.7   286.4   48.64   288.4   48.85   289.2   48.95
   289.7   48.99   290.4   49.12   292.5   48.89   293.3   48.74   294.5    48.5
   296.5   48.45   298.5   48.63   300.5   48.66   302.5    48.5   304.5   48.51
   305.1   48.57   305.9   48.63   306.6    48.7   307.7   48.89   308.6   49.04
   309.5   49.49   309.6   49.56   310.6   50.04   311.3   50.28   311.9   50.51
   312.6   50.74   313.1   50.64   314.2   50.36   314.6   50.27   316.7   50.53
   318.7   50.66   320.4   50.83     321   50.85   322.2   50.94   323.1   50.95
   323.350.96177   324.8   51.05   328.2   51.02   330.8   51.08   331.6   51.04
   332.3   50.97   333.3    50.9   334.9   50.68   336.9   50.28   337.4   50.21
   338.3   50.02     339   49.96   343.1   49.93   345.1   49.98   347.2   49.97
   349.2   50.06   351.2   50.39   353.3   50.77   355.3    51.1     357      51
   359.4   50.73   363.5   50.55   365.5   50.42   367.6   50.34   369.6   50.31
   373.7   50.35   377.8   50.46   379.8   50.49     390    50.7     395   50.72
   398.2   50.72   404.3   50.61   406.1    50.5   408.4   50.39   411.2    50.4
   416.6   50.35   422.7   50.47   428.1   50.66   430.9   50.72     437    50.8
     439   50.79   441.1   50.83   447.2   50.91   451.9   51.05   457.4   51.15
   463.5   51.22   467.6    51.2   469.6   51.22   474.7    51.2   481.9   51.14
     486   51.14     488   51.12   490.1   51.05   492.5   51.02   498.2   50.92
   502.3   50.76   504.4   50.78   506.1   50.87   508.4   50.95   512.5   51.01
   514.6   51.12   516.6   51.28   518.6   51.36   522.7   51.04   524.7   51.01
   526.8   51.04   528.8   51.03   530.9   51.05     535   50.87   539.1   50.82
   541.1   50.87   543.1    51.2   545.2   51.47   551.3   51.59   555.2   51.63
   556.9   51.69   557.4   51.72   559.5   51.75   560.3   51.73   560.7    51.7
   561.5   51.67     562    51.7   563.6   51.88   565.9   52.78   567.1   53.35
   567.6   53.54   569.7   53.75   573.8   53.74   575.8   53.79   577.8   53.69
   579.9   53.48   581.9   53.37     586   53.39   590.1   53.56
#Mann= 1 ,-1,0
       0   -9999       0
Bank Sta=153,323.3
XS Rating Curve= 0 ,0
XS HTab Horizontal Distribution= 5 , 5 , 5 
Exp/Cntr(USF)=0,0
Exp/Cntr=0.3,0.1

Type RM Length L Ch R = 1 ,7532    ,124.8,127.2,131.1
XS GIS Cut Line=2
 693189.45422473 5769306.3116627693292.6549207365769823.34714969
Node Last Edited Time=Jun/21/2023 19:56:20
#Sta/Elev= 220 
       0   51.61      .8   51.31     2.9   50.81     4.9   50.52     6.9   50.08
       9   49.76      11   49.76    13.1   49.63    15.1   49.24    17.1   49.12
    18.9   49.21    25.3   49.34    29.1   49.47    33.4   49.74    35.5   49.79
    37.5   49.92    41.6   50.09    46.1   50.33    49.8   50.46    53.8   50.58
    55.9   50.59      60   50.57      62   50.71      64    50.8    66.5   50.87
    68.2   50.89    69.9   50.89    74.2   50.84    80.4   50.83    82.4   50.75
    84.4   50.72    85.2   50.64    85.8   50.62    86.5   50.56    86.9   50.56
    90.3   50.65    92.6   50.74    98.7   50.86   100.7   50.87   102.8   50.78
   104.8   50.75   106.9   50.76   108.9   50.86     113   51.14   119.1   51.27
   121.5   51.28   127.3   51.24   127.7   51.25   129.1   51.25   131.3   51.36
   133.4   51.41   135.4   51.36   137.5   51.25   143.6   51.23   144.9  51.178
   145.6   51.15   146.4    50.9     147   50.68   147.7   50.44   148.1   50.05
   149.7   48.64   149.8   48.59   151.5   48.17   151.7   48.14   157.9   48.12
     164   48.13   170.1   48.17   172.1   48.14   173.6   48.17   175.3   48.26
   176.2   48.28   178.7   48.24   180.3   48.27   182.3   48.59   184.4   49.04
   185.5   49.15   186.4    49.2   188.4   49.03   188.9      49   190.3   48.81
   190.6   48.78   191.3   48.64   192.5   48.41   192.8   48.38     194   48.22
   194.6   48.18   195.7   48.16     215   48.17   223.1   48.16   234.8    48.2
   237.4   48.26   239.4   48.29   241.5   48.28   245.5   48.52   247.6   48.57
   251.7   48.51   255.7    48.8   257.8   48.83   259.8   48.73   260.3   48.69
   263.7   48.54   265.4   48.56     268   48.68     270   48.96   272.1   49.47
   274.1   50.29   275.6   50.68   276.1   50.78   277.150.76571   278.2   50.75
   280.7   50.53   282.3   50.43   282.4   50.43   284.3   50.47   288.4   50.66
   290.4   50.86   290.9    50.9   292.5   50.96   294.3   51.22   294.5   51.23
     296   51.11   296.5   51.09   297.7   51.06   298.6   51.07   300.6   51.12
   302.7   51.23   304.7   51.31   306.2   51.33   308.8   51.33   310.8    51.4
   314.7   51.49   316.9   51.45     319    51.3     321   51.06   321.5   51.03
   322.8   51.02   325.1   50.88   327.1   50.56   329.2   50.65     330   50.75
   331.2   50.86   331.7   50.87   333.2   50.85   334.4   50.77   335.3   50.73
   336.8   50.77   339.4   50.79   341.4    50.9   347.5   51.05   351.6      51
   355.7      51   357.2   51.04   357.7   51.07   363.5   51.02   363.8   51.01
   365.9    50.8   367.9   50.68     370   50.67     374   50.52   378.1   50.56
   380.2   50.67   382.2   50.73   384.2   50.83   390.4   50.98   392.4   50.96
   396.5   50.78     398   50.78   402.6   50.85   404.6   50.99   406.7   50.98
   410.7    51.1   413.3   51.01   416.9   50.95   418.9   50.81   420.9    50.7
     423   50.71   425.2    50.7   426.9   50.76   429.1   50.94   431.1   50.79
   433.2   50.72   435.2   50.71   439.3   50.65   441.3   50.66   443.4   50.65
   445.4   50.58   446.7   50.56   449.5   50.56   450.7   50.51   451.5   50.46
   453.6   50.42   459.7   50.39   465.8    50.3   467.8   50.33   469.9   50.22
   471.9   50.16     476   50.29     478    50.4   481.3   50.47   484.2   50.59
   484.7   50.68   485.9   50.93   486.2   50.99   488.2   51.58   489.8   51.94
   490.3   52.02   494.4   52.47   494.9   52.58   496.6   52.97   498.4   53.32
   502.5   53.39   504.6   53.48   508.6    53.6   510.7   53.73   512.7   53.78
   516.8   53.78   520.9   53.83   522.1    53.8     525   53.69   527.2   53.68
#Mann= 1 ,-1,0
       0   -9999       0
Bank Sta=144.9,277.1
XS Rating Curve= 0 ,0
XS HTab Horizontal Distribution= 5 , 5 , 5 
Exp/Cntr(USF)=0,0
Exp/Cntr=0.3,0.1

Type RM Length L Ch R = 1 ,7405    ,74.3,109.1,196.2
XS GIS Cut Line=2
693060.453354722 5769285.6715235693176.0381342495769914.16376217
Node Last Edited Time=Jun/21/2023 19:56:50
#Sta/Elev= 240 
       0   52.91     1.5    53.2     3.5   52.81     5.5   51.95     7.6   51.18
    11.6   50.24    13.7   49.79    15.7   49.75    17.7   49.83    19.8   49.64
    21.8   49.39    23.8    49.3    25.9   49.32      32   49.58      36   49.66
    38.1   49.74    46.2   49.94    52.3   50.08    58.5   50.12    66.5   50.26
    70.6   50.36    74.7   50.48    78.7   50.57      81   50.66    82.8   50.68
    84.8   50.62    88.9   50.46    90.9   50.44      95   50.42    97.8   50.51
   101.1   50.63     102   50.64     103   50.64   104.7    50.6   107.2    50.5
   111.3   50.45   111.6   50.41   113.3   50.07   115.3   49.81   117.4   50.08
   119.4   50.38   121.4   50.45   123.6   50.46   125.3    50.5   129.6   50.49
   131.6   50.45   135.7   50.25   137.7   50.22   139.7   50.28   142.5   50.42
   147.9   50.65   149.9    50.7   151.9   50.68     158   50.73   160.1   50.72
   170.2   50.48   174.3   50.42   178.4   50.47   184.5   50.68   188.5   50.78
   194.7    50.9   200.9   50.93   202.8    50.9   204.8   50.91   208.9   50.95
     213   51.04   216.3   51.06   219.1    51.1   220.451.10325   223.1   51.11
   223.6   50.99   224.9   50.59   225.2   50.42   225.5   50.13   226.6    48.9
   227.2   48.48   229.2   48.33   230.1   48.23   230.5   48.22   231.3   48.15
   233.3   48.12   239.4   48.11   243.5   48.14     249   48.11   253.6   48.13
   265.8   48.12   267.9   48.15   282.1   48.19   286.2   48.18   290.2   48.13
   292.3   48.23   294.3   48.22   298.4   48.15   300.5   48.19   303.9   48.15
   310.8   48.14   318.7   48.15   320.7   48.18   321.1   48.21   322.8   48.38
   324.5   48.65   324.8    48.7   326.3   49.33   326.8   49.55   328.9   49.85
   329.7   49.91   331.4   49.98   333.1   49.99     335   49.87   336.6   49.67
   338.3   49.55     339   49.51   341.1    49.6   343.1   49.79   345.2   49.94
   347.2   49.95   349.2   49.88   351.2   49.95   351.5  49.965   352.6   50.02
   355.3   50.19   357.3   50.29   359.4   50.31   361.4    50.3   365.5   50.23
   371.6   50.31   375.6   50.34   377.7   50.33   381.7   50.29   385.8   50.21
   389.9   50.17   393.9   50.09     396   50.09     398   50.17     400   50.39
   402.1   50.45   404.1   50.43   408.2   50.27   410.2   50.25   412.2   50.21
   414.3   50.21   418.3   50.27   424.4   50.31   426.5    50.4   428.5   50.45
   434.6   50.51   436.6   50.56   438.7   50.59   440.7   50.61   442.7    50.6
   444.8   50.55   446.8   50.59   450.9   50.71   452.9   50.74   455.8   50.74
     457   50.72     459   50.64     461   50.61   463.7   50.65   467.1   50.68
   475.3   50.64   479.1   50.59   481.4   50.57   487.5   50.66   491.2   50.75
   493.6   50.74   494.6   50.76   495.6   50.79     498   50.92   499.7   50.95
   501.7   50.91   507.8   50.89   509.8    50.9   513.9   50.97   515.9   50.88
     518   50.77   522.1   50.51   526.1   50.41   528.2   50.38   530.7   50.39
   532.4   50.41   534.3   50.47   535.8   50.48   540.4   50.39   542.7   50.31
   544.4   50.27   548.5   50.34     553   50.47   554.6   50.55   556.6    50.7
   558.1   50.58   558.7   50.52   560.7   50.09   562.7   49.78   564.8   49.69