Geom Title=Elbe-Umflut-Kanal
Program Version=6.40
Viewing Rectangle= 687605.157816309 , 694362.456081973 , 5773136.17503617 , 5768845.71043786 

River Reach=Elbe-Umflut     ,Elbe-Umflut-Reac
Reach XY= 58 
 693894.108007835769235.16119617693749.6600576475769284.81517905
693620.2587689415769360.04848643693555.5581245885769410.45480238
693536.7497977415769454.84245374693472.8014864625769489.44977514
693384.0261837455769468.38444907693295.2508810285769499.98243817
693195.1905822045769536.09442572693014.6306444745769581.98674323
692871.6873604395769566.94008175692781.4073915745769486.44044284
  692697.14608735769383.37081172 692607.61845151 5769231.3995308
692483.4834943215769164.44188723692359.3485371325769141.87189501
692257.7835721595769167.45121952692093.0226289815769232.90419695
692013.2753231515769293.09084286691957.6026756845769399.92213935
691920.7383550655769594.02407241691926.7570196565769668.50504672
691953.0886772415769710.63569886691889.140365962 5769902.4806327
691802.6220624675770064.23224358 691793.594065585770174.82520544
691801.1173963195770316.26382332691749.9587472965770453.94077584
691722.1224235625770640.51937816691728.1410881535770798.50932368
691656.6694461365770930.91994468691588.207136413 5770996.3729221
691462.5675130775771037.75124117691315.8625636725771093.42388863
691187.9659411145771150.60120225691136.0549590165771240.12883804
691066.0879831465771341.69380301690969.0370166175771453.79143102
690868.2243847185771538.80506837690762.1454213025771568.89839132
690657.5711240345771526.76773918690572.5574866865771522.25374074
690492.8101808565771565.88905902690362.6565590765771628.33270416
690245.2925995525771696.79501388690088.8073201875771783.31331737
 689939.845371565771859.29895784689799.159086746  5771932.275266
689652.4541373415772000.73757572689518.5388501925772069.95221852
 689356.78723931 5772151.2041905689202.5589591665772230.19916325
688983.6300346695772337.78279282688751.9114479175772463.42241615
688455.4922168115772608.62269941 688216.250299325772744.79498578
688066.5360176195772849.36928305687912.3077374765772941.15391806
Rch Text X Y=,
Reverse River Text= 0 

Type RM Length L Ch R = 1 ,8239    ,232.9,213.9,232.3
XS GIS Cut Line=2
693784.6910023925769096.91860157694055.306160807 5769761.9897536
Node Last Edited Time=Jun/21/2023 17:34:32
#Sta/Elev= 282 
       0   53.32      .2   53.34      .3   53.33     1.8   53.01     2.4   52.97
     4.9   52.55     5.9   52.37     6.7   52.14    10.9    51.1    13.2   50.56
    14.1   50.42    15.3   50.27    17.2   50.28    19.6   50.39    21.8   50.46
    24.9   50.49    28.3   50.55      31   50.52    39.1   50.53    45.6   50.63
    47.7   50.64    49.9   50.61      54    50.6    58.5    50.7    60.2   50.76
    62.8   50.75    64.8   50.73    69.3   50.74    72.4   50.67    75.8   50.57
    80.1   50.55    82.3   50.57    86.6   50.49    90.9   50.52    96.1   50.59
   101.7   50.53   106.2   50.45   108.2   50.39   109.3    50.4   112.3    50.5
   115.4   50.55   116.8    50.6     119   50.68   121.1   50.79   123.3   50.98
   124.6   51.03   127.9   51.08   129.8   51.05   130.8   50.97   131.9   50.92
   133.8   50.96   134.1   50.97   135.4   50.85   136.2   50.74   136.450.69131
   138.5   50.18     143   48.75   144.6   48.34   144.9   48.28   146.1   48.19
     147   48.15   149.2   48.16   162.1   48.12   179.4   48.13   185.9   48.16
   194.5   48.15   202.2   48.16   206.148.15264   207.5   48.15   209.7   48.16
   210.6    48.2   211.8   48.23   212.8   48.42     214   48.69   216.1   49.39
   218.2   49.56   219.8   49.53   220.4    49.5   221.3   49.44   222.6   49.33
   223.4   49.29   224.8   49.26   226.9   49.27   229.1   49.44   231.2   49.77
   233.4   49.85   235.6    49.9   236.7   49.88   238.2   49.91   239.9   49.91
   241.3   50.09     242   50.18   242.8   50.33   244.2   50.59   244.7   50.64
   245.9    50.7   246.4    50.7   247.4   50.55   248.5   50.44   250.5   50.36
     252   50.35   252.8   50.38   253.5   50.44   254.8   50.61   255.1   50.63
   256.6   50.54   258.1   50.41   259.3   50.27   261.5   50.33   263.6   50.31
   265.8    50.4   267.4   50.24     268   50.22   270.1   50.23     272   50.22
   274.4   50.12     275   50.12   276.6   50.14   278.7   50.46   280.9   50.71
   281.8   50.73   283.1   50.73   285.2   50.66   285.8    50.6   287.3   50.37
   289.5   49.94   290.4   49.83   291.9   49.68   293.9   49.61   296.5   49.66
   297.7   49.65   301.1   49.57   304.2   49.55   304.7   49.56     309   49.76
   310.3    49.8   313.3   49.83   315.5   49.78     318   49.64   321.9   49.52
   322.6   49.52   324.3   49.55   328.4   49.85   330.3   49.93   331.8   49.95
   334.9   49.93     337   49.97   339.2   49.98   344.1   49.92   345.7   49.82
   347.2   49.62   347.8   49.58   350.2   49.73   352.2   49.79   356.5   49.85
   357.9   49.89   360.8   49.89   365.1   49.85   373.8   49.62   375.9   49.63
   380.2   49.48   382.4   49.44   387.1   49.37   397.5   49.28   399.7   49.24
   403.9   49.19   409.2   49.17   414.5   49.18   416.9   49.17   422.4   49.12
     427   49.13   438.5   49.01   440.7   49.03   442.3   49.07   443.8   49.08
   445.4   49.07   451.5   48.97   454.6   49.12   455.8   49.13   457.7   49.07
   462.3   49.02   463.8   48.98   464.4   48.98   465.3   48.94   466.6   48.94
   468.4   48.77   468.8   48.77   469.9   48.71   471.5   48.68   473.1    48.5
   475.2    48.4   476.1   48.39   477.4   48.32   479.1   48.32   479.6   48.29
   482.2   48.28   483.9   48.23   485.3   48.26     486   48.24   486.8   48.26
   488.2   48.25   488.8   48.24   492.5   48.25   494.5   48.21   496.8   48.21
   499.1   48.25   500.6   48.29   503.3    48.3   505.5   48.24   512.9   48.26
   514.1   48.25   516.3   48.21   522.1   48.17   524.9    48.2   529.8   48.21
   533.5   48.19   537.9   48.21   542.2   48.21   546.5   48.24   548.7    48.2
     553    48.2   560.5   48.24   569.7   48.23   574.6   48.21   576.7   48.19
   578.8   48.19   580.4   48.21   586.6   48.23   594.9   48.19   598.9   48.23
   602.6   48.24     605   48.23     607   48.25   617.3   48.21   622.1   48.21
   626.4   48.19   629.6   48.23   632.9    48.2   641.5   48.22   643.7   48.21
     648   48.24   650.1   48.23   652.6   48.28   654.5   48.29   655.6   48.37
   656.6    48.4   657.2   48.42   658.7   48.41   660.9    48.3   663.1   48.48
   664.9   49.19   665.2    49.3   666.2   49.21   666.4    49.2   667.4   49.02
   667.9   49.13   669.2   49.52   669.5   49.63   669.6   49.69   669.8   49.73
     671   50.04   671.7   50.05   672.5    50.1   673.5   50.27   673.9   50.33
   675.6   50.45     676   50.52   677.1   50.53   678.2   50.59   680.2   50.59
   680.8    50.6   682.5   50.62   686.3   50.55     689   50.52   691.2   50.52
   693.3   50.53   695.5    50.6   697.6   50.63   701.7   50.65   710.6   50.64
   714.9   50.66     718   50.63
#Mann= 1 ,-1,0
       0   -9999       0
Bank Sta=136.4,206.1
XS Rating Curve= 0 ,0
XS HTab Horizontal Distribution= 5 , 5 , 5 
Exp/Cntr(USF)=0,0
Exp/Cntr=0.3,0.1

Type RM Length L Ch R = 1 ,8025    ,108.7,123.8,126.5
XS GIS Cut Line=4
693553.0627735795769194.38592557693641.3567023845769306.76001678
693736.5306775895769555.58836159693729.650631189 5769680.5758712
Node Last Edited Time=Jun/21/2023 17:34:47
#Sta/Elev= 239 
       0   50.36      .9   50.33     1.8   50.34       3   50.31     6.1   50.04
     8.6   49.94    11.8   49.86    15.9   49.83    18.9   49.77    21.3   49.75
    23.2   49.76    26.4   49.81    31.4   49.95    36.5   50.02    39.1   50.08
    59.4   50.32    64.5   50.33    69.6   50.38    72.1   50.36    79.8    50.4
    84.9   50.34    87.4    50.3    92.5   50.28    96.9   50.34   104.4   50.49
   107.7   50.61   109.8   50.62   112.9   50.63   115.4   50.67   115.8    50.7
   116.3   50.77   117.2   50.91   117.9   51.04   118.6   51.06   119.5   51.05
     123   50.96   125.6   50.99   127.2   50.96   131.4   50.97   132.5   50.95
   133.2   50.91   134.3    50.8   135.7   50.62     140   50.27   140.8   50.23
   142.450.19191   142.9   50.18   145.4    50.1   147.2   49.97   147.6   49.93
   149.7   49.44   150.6   49.37   151.9   49.29   152.8   49.26   156.1   49.22
   158.3   49.16   159.9   49.19   160.4    49.2   162.6   49.34   166.1   49.45
     169   49.61   169.6   49.61   170.7   49.56   171.1   49.53   172.3   49.35
   173.3   49.18   173.8   48.97   175.4   48.29   176.9   48.18   177.5    48.1
   179.7   48.11   180.8   48.15   181.6    48.2   181.8   48.24   183.1   48.58
   184.7   49.05   186.2   49.39   187.7   49.48   190.4   49.59   192.4   49.73
   194.7   49.83     197   49.86     199   49.93   200.1   49.91   203.2   49.77
   204.8   49.73   207.9   49.72   211.8   49.55   212.5   49.45     214   49.29
   216.1   49.09   218.2   49.12   220.4   49.24   222.5   49.45   224.7   49.57
   226.8   49.54     228   49.43   231.2    49.1   233.2   48.95   236.8   48.88
   237.5   48.88   238.9   48.98   241.8   49.03   243.9    48.9   245.1   48.87
   246.1   48.87   246.6   48.92   248.2   49.11   249.7    49.2   250.4   49.26
   251.3   49.29   252.5   49.36   252.8   49.48   253.6   49.72   254.3   49.93
   254.6   49.98   257.4   50.09   261.1   50.17   263.2   50.08   263.6   50.02
   265.2   49.91   266.7   49.83   267.5   49.81   269.6   49.81   271.8   49.85
   273.9    49.8     276    49.8   278.2   49.76   282.5   49.64   286.8   49.73
   288.9   49.71   291.5   49.75   293.2   49.75   295.3   49.68   297.5   49.52
   298.4   49.48   301.7   49.41   302.4   49.39   303.9   49.37   305.5   49.26
     306    49.2   308.2   48.51   310.3   48.17   314.6   48.18   316.7   48.56
   318.9   49.04   322.5   49.19   325.3   49.27   327.4   49.37   329.6    49.4
   331.7   49.39   333.9   49.27   334.9   49.25     336   49.23   338.1   49.25
   342.4   49.18   344.6   48.96   346.7   48.82     351   48.92   357.4   48.98
   359.7   49.02   364.3   49.03   368.1   49.09   370.3   49.07   374.5   49.07
   378.3    49.1     381   49.02   383.1   49.01   385.3   49.04   387.4   49.12
   389.5   49.14   391.7   49.14   393.8   49.11     396   49.19   399.9   49.43
   402.4    49.5     403   49.55   404.5   49.64   406.7   49.68   408.749.62286
   408.8   49.62   410.8   49.61   412.3   49.76   412.8   49.81   414.9    49.8
   416.9   49.77   417.7   49.82     418   49.83   418.9   49.88   420.9   50.04
   422.9   50.07   426.9   50.09   430.9   50.24   432.9   50.25   436.8   50.42
   440.8   50.45   442.9   50.35   444.9   50.35   448.4   50.53   448.9   50.57
   450.9   50.84   452.9   50.97   454.9   50.89   456.9   50.74   459.8   50.67
   460.1   50.63   460.9   50.61   462.9   50.71   464.9   50.74   466.9    50.8
   468.9   50.58   470.9   50.44   472.9   50.54   474.9   50.74   476.9   50.82
   478.9   50.83     481   50.87     483   50.74     485   50.63     489   50.58
     491   50.61     493    50.7     495   50.75     497   50.77     499   50.81
     503   50.78     505   50.79   507.2   50.73     509   50.67     511   50.56
     513    50.5   521.6   50.43     523   50.45   526.2   50.51     531   50.54
   531.9   50.69   532.1    50.7     533   50.84   534.5   50.89
#Mann= 1 ,-1,0
       0   -9999       0
Bank Sta=142.4,408.7
XS Rating Curve= 0 ,0
XS HTab Horizontal Distribution= 5 , 5 , 5 
Exp/Cntr(USF)=0,0
Exp/Cntr=0.3,0.1

Type RM Length L Ch R = 1 ,7901    ,167.9,210.7,201.9
XS GIS Cut Line=5
693452.1554263745769217.31941358693517.5158671775769326.25348158
693542.7427039795769377.85382958693610.3964935825769577.37517519
693610.396493582 5769638.1489184
Node Last Edited Time=Jun/21/2023 17:35:01
#Sta/Elev= 209 
       0   51.82     2.1    52.9     3.3   53.15     4.4   53.26     4.8   53.19
     5.3   53.04     6.2   52.79     6.8   52.61    11.4   50.83    12.1   50.63
    13.5   50.28    13.8   50.24      15   50.19    16.4   50.16    18.4      50
    20.7   49.89    28.1   49.73    30.1   49.72    34.7   49.78    39.4    49.8
    41.2   49.82    44.1    49.9    46.4      50    51.1   50.11    54.3   50.13
    58.7   50.12    60.2   50.13    62.7   50.19    72.1   50.24    74.7    50.3
    81.4   50.37    86.1   50.37    93.1   50.33    97.7   50.24     101   50.23
   102.4   50.24   104.7   50.32     107   50.37   114.2   50.43     121   50.62
   130.2   50.73   134.7   51.03   136.9   51.02   139.1    50.9   140.7   50.79
   143.6   50.55   145.8   50.41   148.4   50.37   150.3   50.39     153    50.5
   154.7   50.54   158.6   50.53   161.4   50.51   162.1   50.52   163.6   50.59
   165.8   50.74   168.1   50.77   170.3   50.66   172.5   50.38   173.6   50.27
   174.7   50.18   176.6   50.16   179.6   50.08   180.850.07333   181.4   50.07
   183.6   50.01   184.5   49.95   187.2   49.69   187.9    49.6     190   49.38
   191.9   49.32   194.2   49.39   195.1    49.4   196.4   49.35   197.4   49.28
   198.2   49.26   198.5   49.27   199.8    49.4   202.7   49.76   203.7   49.77
   204.8   49.74   207.7   49.74   208.6   49.69     209   49.67   211.1    49.4
   211.8   49.22   212.4   49.08   213.3   48.82     214   48.68   216.1   48.33
   217.1   48.21   217.5   48.19   221.7   48.15   223.8   48.17     225   48.26
   225.9   48.36   226.6   48.46   228.6   48.81   230.2   49.03   232.3   49.19
   234.5   49.19   236.5   49.16   237.6   49.21   238.6   49.23   240.7   49.24
   242.4   49.22   244.9   49.14   245.5   49.11     247   48.99   249.2   48.54
   251.3   48.19   255.5   48.15   257.6   48.26   259.7   48.65   261.8   48.87
   263.9      49   266.1   49.05   267.6   49.12   268.2   49.17   270.3   49.29
   270.8    49.3   272.4   49.29   276.6   49.08   278.6   49.03   280.8   48.96
   282.9   48.92   287.2   48.88   288.1    48.9   289.3   48.88   289.7   48.89
   290.8   48.86   291.4   48.87   292.8   48.96   293.5   48.98   295.6   48.97
   297.7    48.9   299.1   48.92   300.7   48.98   302.3   49.01   303.3      49
   303.9   49.02     307   48.95   307.7   48.91   308.6   48.88   310.4   48.91
   312.5   48.96   314.6   48.95   316.5   48.84   316.7   48.83   318.8   48.87
     321   49.13     322   49.19   322.8   49.23   323.1   49.23   324.4   49.16
     326   49.09   327.3   49.09   329.4   49.28   331.5   49.32   340.1   49.21
   342.1   49.24   344.2   49.36   346.3   49.43   350.5   49.41   352.6   49.37
   354.8   49.29   356.9   49.27   359.4   49.28   365.3   49.44   369.5   49.49
   370.1   49.51   371.6   49.48   373.8    49.4   375.9   49.42   377.9   49.65
   380.1   49.78   382.7    49.9   386.4   49.96   388.5   50.11   390.7   50.39
   392.2   50.46   392.450.46333   392.8   50.47   393.8   50.46   395.2   50.42
   396.9   50.45   398.9   50.65   400.9   50.68   402.9   50.46   404.9   50.32
   405.4   50.33   406.9   50.39   410.9   50.66   416.9   50.89   419.4   51.03
   420.9   51.09   428.9   51.29   432.9   51.28   434.9   51.25   438.9   51.32
   440.9   51.32   442.9   51.34   444.9   51.32   446.9   51.33   448.9   51.29
   450.9   51.08   452.9   50.69   454.9   50.28   455.9   50.19
#Mann= 1 ,-1,0
       0   -9999       0
Bank Sta=180.8,392.4
XS Rating Curve= 0 ,0
XS HTab Horizontal Distribution= 5 , 5 , 5 
Exp/Cntr(USF)=0,0
Exp/Cntr=0.3,0.1

Type RM Length L Ch R = 1 ,7690    ,151.8,167.6,151.5
XS GIS Cut Line=4
693305.3811031665769276.94648238693362.7148231695769403.08066639
693408.5817991715769551.00166399693416.6085199725769760.84307921
Node Last Edited Time=Jun/21/2023 17:35:10
#Sta/Elev= 225 
       0   53.14      .2   53.11     1.3   52.71     2.4   52.27     4.6   51.33
     6.8   50.57     7.3   50.43     8.5   50.22       9   50.15    11.2   50.04
    13.4   49.83    14.9   49.78    17.8   49.73    22.1   49.72    28.7   49.77
    30.9   49.79    35.3   49.88    39.7   50.01    41.9    50.1    44.1   50.15
    48.1   50.18      52   50.19    59.5   50.16    61.7   50.19    66.1   50.19
    70.5   50.25    72.7   50.42    74.9   50.68    77.1    50.8    78.3    50.8
    79.3   50.79      81   50.81    84.3   50.95    85.9   51.03    88.1   51.05
    90.3   50.78    90.7   50.76    91.9   50.73    92.5   50.74    94.6   50.84
    94.9   50.84    96.4   50.74      99    50.5   101.2   50.37   103.4   50.29
     107    50.2   108.5   50.18   114.4   50.04   118.8   50.05   127.6   49.87
   129.8   49.76     132   49.52   134.2   49.31     13849.10273   138.6   49.07
   139.2   49.03   140.7   48.88   142.8    48.7   145.1   48.59     147   48.56
   148.3   48.56   149.9   48.61   153.2   48.82   155.3   48.85   156.3   48.89
   157.9   48.99   159.5   48.99   161.1   48.88   161.6   48.86   162.7   48.91
   165.9    49.1   167.5   49.15   169.1   49.16   170.7   49.19   174.2   49.42
   175.5   49.36   178.4   49.15   182.6   48.91   183.5   48.92   186.7   49.09
   188.8   49.26   190.9   49.33   191.5   49.29   193.1    49.1   195.1   48.91
   197.2   48.86   199.5   48.74   201.4   48.67   204.3   48.45   205.9   48.37
   206.7    48.3   207.5   48.22   207.7   48.21   209.1    48.2   218.2   48.23
   218.6   48.29   220.2   48.54   221.8   48.92   222.3   49.02   223.4   49.13
   224.4   49.19   226.5   49.11   228.6   49.27   230.7    49.2   231.4    49.1
   232.8   48.86   234.6   48.36   234.9    48.3     237   48.21     241   48.17
   255.8   48.17     257   48.27   257.9   48.37     260   48.85   261.8   49.09
   262.1   49.12   264.2   49.11   266.3   49.29   267.5   49.43   268.4    49.5
   268.8   49.48   269.8   49.48   270.5   49.43   271.4   49.18     273   48.69
   274.2    48.4   274.7   48.32   276.2   48.41   276.8    48.4   278.9   48.49
   279.4   48.48     281   48.49   283.1   48.62   284.2   48.89   285.2   49.15
   285.8    49.7   287.3   50.91     289   51.18   289.3   51.21   290.1   51.19
   290.6   51.15   291.4   51.15   293.4   51.01   293.8   50.96   295.5   50.73
   295.7  50.723   297.5   50.66   299.5   50.84   303.5   50.74   305.5    50.8
   307.5   50.95   309.5   50.99   309.9   50.96   311.2   50.76   311.5   50.73
   313.5   50.34   315.5   49.88   316.1   49.89     317   50.01   317.5   50.02
   319.6   50.14   320.3   50.04   320.8    49.9   321.6   49.82   323.6   50.02
   325.6   50.14   327.6   50.58   329.6   50.93   331.6   50.97   332.4   50.84
   332.7   50.76   333.6   50.62   335.6   50.42   337.6   50.41   341.6   50.35
   343.6   50.35   345.6   50.37   355.6   50.67   357.6    50.7   359.8   50.66
   361.6   50.65   367.6   50.78   369.6   50.81   373.6   50.83   375.6   50.79
   377.6   50.69   381.6   50.42   383.6   50.33   385.6   50.34   387.6   50.32
   391.6   50.31   397.6   50.46   401.6   50.51   407.6   50.68   409.6   50.81
   411.6   50.86   413.6   50.89   417.6   50.87   421.1   50.91   425.6   50.93
   427.6   50.96   431.6   50.99   433.6   51.14   437.6   51.18   443.6   51.19
   449.6   51.15   453.6   51.17   455.8   51.28   457.7   51.34   459.7   51.34
   461.7   51.27   463.7   51.16   467.7    51.1   469.7   51.09   471.7   51.13
   477.7   51.15   479.7   51.07   481.7   50.97   483.7   50.93   485.7   50.94
   489.7   51.03   491.7   50.98   493.7   50.94   495.7   51.03   503.4   51.06
#Mann= 1 ,-1,0
       0   -9999       0
Bank Sta=138,295.7
XS Rating Curve= 0 ,0
XS HTab Horizontal Distribution= 5 , 5 , 5 
Exp/Cntr(USF)=0,0
Exp/Cntr=0.3,0.1

Type RM Length L Ch R = 1 ,7522    ,134.5,140,117.9
XS GIS Cut Line=4
693176.9535703595769321.66678398 693201.033732765769452.38766559
693243.460685563  5769579.668524693299.6477311665769780.33654401
Node Last Edited Time=Jun/21/2023 17:35:17
#Sta/Elev= 212 
       0   49.19     1.5   49.18     3.5   49.21     7.6   49.33     9.6   49.42
    11.6   49.55    13.7   49.71    15.7   49.88    17.7   50.01    19.8   50.09
    25.9   50.24      32   50.43      34   50.47      36   50.49    44.2   50.43
    52.3    50.5    62.5   50.66    64.5   50.66    68.6   50.59    70.6    50.6
    72.6   50.54    74.7    50.5    76.7    50.5    85.3   50.77    88.9   50.85
    90.9   50.75    92.2   50.73      93   50.73      95   50.88    95.6   50.88
    99.1   50.87   101.1   50.85   103.2   50.79     106   50.78   107.7    50.8
   109.3   50.84   114.5   51.05   116.3    51.1   117.4   51.12     119   51.11
   121.5   51.07   123.5   51.31   125.5    51.4   127.6    51.4   128.3   51.37
   129.6   51.36     130   51.33   131.5   51.28   133.7   51.16   134.4 51.1025
   136.5   50.93   137.4   50.79   137.9   50.74   138.1   50.63   138.8   50.22
   139.7   49.59   140.6   49.09   141.3   48.64   142.1   48.29   142.9   48.23
   144.2   48.17   146.3   48.14   148.4   48.13   156.9   48.14     159   48.17
   161.1   48.19   163.4   48.19   167.4   48.14   171.3   48.18   173.7   48.27
   175.8   48.31     178   48.82   179.2      49   180.1   49.11   180.8   49.14
   182.2   49.15   183.1   49.11   184.3   49.02   185.6   48.65   186.4   48.44
   187.1   48.32   188.5   48.15   192.7   48.17   203.3   48.16   220.1   48.17
   225.1   48.21   226.7   48.24   228.6   48.23   230.7    48.2   232.8   48.27
   234.6   48.44     237   48.57   241.2    48.6   244.1   48.69   247.2   48.82
   247.5   48.81   249.6   48.57   251.7   48.44   253.8   48.47     256   48.61
   258.1   48.85   260.2   49.38   261.5   49.81   262.3   50.12     263   50.34
   264.4   50.77   265.3   50.82   265.6 50.8125   266.5   50.79   268.6   50.58
   270.7   50.43   272.7   50.47   276.9   50.65     279   50.85     281   50.94
   281.5   50.98   282.4   51.09   283.1   51.12     284   51.06   285.7   51.01
   289.4   51.15   291.4   51.28   293.5   51.38   295.6   51.34   297.7   51.32
   299.7   51.44   301.9   51.51   303.9   51.48   305.1   51.39   308.4   51.09
     310   50.97   310.1   50.96   310.4   50.97   311.6   51.02   312.2   51.02
   314.3   50.93   314.9   50.86   316.5   50.79   318.4   50.61   320.5   50.58
   322.6   50.71   324.8   50.75   326.2    50.8   328.8   50.56   330.9    50.5
   331.8    50.5   332.7   50.57     335    50.8     336   50.84   337.1   50.88
   339.2   50.79   342.4   50.82   343.4   50.85   345.7   51.06   347.5    51.2
   349.6   51.13   351.7   51.16   353.7   51.17   355.4   51.29   355.8   51.29
   357.9   51.06   358.7   50.93     360   50.75   360.3   50.72   361.9   50.59
   363.5   50.57   366.2   50.58   368.9   50.67   374.9   50.81   376.5   50.87
   378.7   50.89   383.7   50.82   384.9   50.82   387.9   50.85   391.1   50.84
   393.2   50.76   395.3   50.75   399.2   51.03   400.9   51.07   403.6   51.18
   405.7    51.1   407.7   50.98   409.8   51.01   412.2   50.91     414   50.81
     416   50.77   418.1   50.82   420.3   50.82   422.3   50.85   423.6   50.96
   426.4   51.17   428.5   50.72   430.6   50.71   432.7   50.63   436.6   50.63
   439.8   50.39   441.4    50.3     443    50.3   445.1   50.37   449.3   50.56
   450.4   50.59   451.2   50.63   451.7   50.63   452.8   50.68   454.4   50.66
   457.6   50.57   461.7   50.32   463.8   50.37     468   50.84   470.6   51.09
   472.2   51.19   475.5   51.23
#Mann= 1 ,-1,0
       0   -9999       0
Bank Sta=134.4,265.6
XS Rating Curve= 0 ,0
XS HTab Horizontal Distribution= 5 , 5 , 5 
Exp/Cntr(USF)=0,0
Exp/Cntr=0.3,0.1

Type RM Length L Ch R = 1 ,7382    ,80.4,127.2,181.1
XS GIS Cut Line=4
693046.2326887525769312.49338878693068.0195023535769517.74810639
693144.846687157  5769671.402476 693202.180407165769842.25696161
Node Last Edited Time=Jun/21/2023 17:35:25
#Sta/Elev= 209 
       0   49.46      .6   49.48     4.6   49.76     6.7   49.84    10.7   49.95
    16.7   50.05    20.7   50.09      23   50.14    26.8   50.17    30.3   50.16
    32.8   50.17    36.8   50.24    38.8   50.28    40.8   50.37    42.9   50.42
    48.9   50.51    52.9   50.48    54.9   50.43    58.9   50.28      63   50.16
      65   50.07      67   50.02      69   49.91      71   49.73      73   49.67
      77   49.56    79.1   49.58    81.1    49.7    87.1   50.22    89.1   50.36
    91.1   50.44    95.1   50.55   101.2   50.59   105.2   50.57   107.2    50.6
   111.2   50.73   113.3   50.76   115.3   50.76   116.9   50.74   119.3   50.67
   121.3   50.55   125.3   50.22   127.3   50.09   129.3   50.05   131.4   50.08
   135.4   50.25   137.5   50.35   139.4   50.45   141.4   50.54   145.4   50.64
   147.4   50.65   149.5   50.62   151.5   50.56   153.5   50.56   155.5    50.6
   161.5   50.82   167.6   50.97   169.6   50.99   171.6   50.98   183.6   51.05
   191.7   51.03   192.1   51.02   193.7   51.01   195.7   50.88   199.7   50.81
   200.2   50.67   201.2   50.46   201.7   50.27   203.8   49.16   204.8   48.72
   205.8   48.35   206.6   48.24   207.9   48.12   210.2   48.25     21148.28368
     214   48.41   215.5   48.55   216.9   48.59   219.1   48.27     220   48.18
   221.3   48.12   232.5   48.12   240.9    48.1   248.2   48.11   257.6   48.17
   263.8   48.18   272.8   48.17   277.2   48.14   279.5   48.19   281.1   48.39
   281.7   48.45   282.6   48.42     284   48.34   284.4   48.29   286.2   48.15
   288.6   48.28   290.7   48.25   292.9   48.18   295.1   48.15   297.4   48.21
   299.6   48.36   301.8   48.42   304.1    48.3     305   48.35   306.3   48.45
   306.8   48.52     308   48.74   310.9   49.46   312.4   49.68     313   49.75
   313.9   49.84   315.3   49.93   316.9   49.81   317.5   49.74   319.7   49.52
   322.9   49.55   324.7   49.63   325.8   49.72   327.3   49.85   328.7   49.93
   330.9   49.89   333.149.99593   333.6   50.02   335.4   50.09   339.9   50.32
   342.1   50.36   348.2   50.31     351   50.31   352.7   50.33     356   50.33
     360    50.4   362.2   50.42   368.9    50.4   373.4   50.46   384.2   50.49
   386.3   50.46   388.4   50.58   390.5   50.66   398.5   50.73   401.1   50.73
   405.3   50.77   407.4   50.75   413.8   50.84   415.9   50.84   420.1   50.92
   422.2   50.94   428.6   50.87   430.6   50.82   431.7   50.81   434.9   50.83
     437   50.79   439.1    50.7   441.2   50.65   443.3   50.61   445.9   50.61
   449.6   50.54   451.7   50.57   453.8   50.65   455.9   50.69   460.2   50.72
   462.3   50.75   463.3   50.88   464.4   51.05   464.9   51.09   466.5   51.15
   468.6   51.14   472.8   51.09   480.7   51.11   485.5   51.07   487.6   51.01
   490.2   50.86   491.7   50.82   493.9   50.97   494.9   50.99     496      51
   498.1   50.91   499.6   50.89   501.2   50.82   502.4   50.75   502.8    50.7
   504.5   50.56   506.6    50.6   508.7   50.56   510.8   50.37   512.9    50.3
   513.9   50.29     515   50.28   517.1   50.41   519.2   50.46   523.3   50.42
   524.9   50.43   529.8   50.55   531.9   50.52     534   50.51   536.1   50.57
   538.2    50.6   540.3   50.51   541.8   50.24   542.3   50.17   543.9   50.04
   544.5   49.95   545.4   49.94   546.7   49.89   548.6   50.09   550.9   50.59
   551.8   50.66     553    50.7   557.2   50.68   558.4    50.7
#Mann= 1 ,-1,0
       0   -9999       0
Bank Sta=211,333.1
XS Rating Curve= 0 ,0
XS HTab Horizontal Distribution= 5 , 5 , 5 
Exp/Cntr(USF)=0,0
Exp/Cntr=0.3,0.1

Type RM Length L Ch R = 1 ,7255    ,139.2,198.4,224.8
XS GIS Cut Line=4
692987.7522943495769275.79980798692965.9654807475769545.26829199
692965.965480747 5769635.8555696 693022.152526355769964.95112242
Node Last Edited Time=Jun/21/2023 17:35:52
#Sta/Elev= 281 
       0   52.98     1.3   52.93     3.3   52.39     5.3   51.72     7.3   51.08
     9.3   50.91    11.3   50.41    13.4   49.22    15.4   48.69    17.4   48.81
    19.4   48.95    21.4   49.02    23.4   49.07    25.4   49.31    27.4   49.72
    29.4   49.88    31.4   49.68    33.4   49.28    37.4   49.28    39.4   49.27
      41   49.22    43.5   49.19    45.5    49.1    47.5   49.23    49.5   49.27
    51.5   49.22    53.5   49.29    55.5    49.2    57.5   49.29    59.6   49.45
    61.5   49.46    63.5   49.34    65.1   49.46    67.5    49.6    68.2   49.72
    68.8    49.8    69.5   49.94    71.5   50.51    75.6   50.21    81.8   50.18
    83.6   50.14    87.6   50.14    93.6   49.97    97.6   49.92    99.6   49.97
   101.6   50.08   103.6   50.22   105.7   50.33   107.7   50.46   109.7   50.55
   111.7    50.6   115.7   50.61   118.4    50.6   125.7    50.6   127.7   50.57
   131.7   50.43   133.7   50.32   135.8   50.24   137.8   50.29     145   50.55
   151.8   50.71   159.8   50.76   161.8   50.79   165.9   50.79   169.9   50.87
   173.9   50.81   175.9    50.8   179.9   50.71   181.9   50.62   185.8    50.4
   187.9   50.31   189.9   50.25   191.9   50.26   193.9   50.32     198   50.51
     202   50.66     204   50.64   209.9    50.7     212   50.69   215.5   50.62
     218    50.6     226   50.47   228.1   50.47   232.1   50.43   234.1   50.36
   236.1   50.36   238.1   50.32   242.1   50.32   250.1   50.18   252.1   50.12
   254.5   50.02   260.1   49.94   261.9   49.92   266.2   49.93   268.2   49.98
   270.3   50.35   272.2   50.69   274.2   50.67   274.4  50.633   276.2    50.3
   278.2   49.54   280.2   49.11   284.2   49.13   286.2   49.04   290.2   48.37
   292.2   48.16   294.2   48.13   302.2   48.11   316.2   48.12   318.2   48.23
   320.2   48.62   322.2   48.97   324.2   49.27   326.2   49.35   328.2   49.04
   330.2   48.63   332.2   48.51   334.2   48.52   336.2    48.6   338.2   48.45
   340.2   48.38   342.2   48.63   344.2   48.66   346.2   48.77   348.2   48.85
   350.2   48.77   352.2   48.75   354.2   48.62   356.2   48.46   360.2   48.32
   362.2   48.32   364.2   48.81     36649.38429   366.3   49.48   368.3   49.76
   370.3   49.89   372.4   49.98   374.4   50.17   376.4   50.27   378.4    50.2
   380.5   50.24   382.5   50.31   386.6   50.34   388.6   50.29   390.6   50.13
   392.6   50.24   394.7    50.8   396.7    51.1   397.5   51.03     398   50.94
   398.7   50.87   400.8   50.76   402.8    50.9   404.8   50.92   406.8   50.77
   409.6    50.7     414   50.51   416.6   50.48     421   50.39   423.1   50.31
     427    50.2   428.7   50.17   429.2   50.18   431.2   50.25   433.2   50.47
   435.3   50.74   437.3   50.85   439.3   50.74   441.3   50.71   443.4   50.94