Geom Title=Elbe-Umflut-Kanal
Program Version=6.40
Viewing Rectangle= 687498.36447852 , 694413.793692553 , 5773319.3535577 , 5768832.39099276 

River Reach=Elbe-Umflut     ,Elbe-Umflut-Reac
Reach XY= 58 
 693894.108007835769235.16119617693749.6600576475769284.81517905
693620.2587689415769360.04848643693555.5581245885769410.45480238
693536.7497977415769454.84245374693472.8014864625769489.44977514
693384.0261837455769468.38444907693295.2508810285769499.98243817
693195.1905822045769536.09442572693014.6306444745769581.98674323
692871.6873604395769566.94008175692781.4073915745769486.44044284
  692697.14608735769383.37081172 692607.61845151 5769231.3995308
692483.4834943215769164.44188723692359.3485371325769141.87189501
692257.7835721595769167.45121952692093.0226289815769232.90419695
692013.2753231515769293.09084286691957.6026756845769399.92213935
691920.7383550655769594.02407241691926.7570196565769668.50504672
691953.0886772415769710.63569886691889.140365962 5769902.4806327
691802.6220624675770064.23224358 691793.594065585770174.82520544
691801.1173963195770316.26382332691749.9587472965770453.94077584
691722.1224235625770640.51937816691728.1410881535770798.50932368
691656.6694461365770930.91994468691588.207136413 5770996.3729221
691462.5675130775771037.75124117691315.8625636725771093.42388863
691187.9659411145771150.60120225691136.0549590165771240.12883804
691066.0879831465771341.69380301690969.0370166175771453.79143102
690868.2243847185771538.80506837690762.1454213025771568.89839132
690657.5711240345771526.76773918690572.5574866865771522.25374074
690492.8101808565771565.88905902690362.6565590765771628.33270416
690245.2925995525771696.79501388690088.8073201875771783.31331737
 689939.845371565771859.29895784689799.159086746  5771932.275266
689652.4541373415772000.73757572689518.5388501925772069.95221852
 689356.78723931 5772151.2041905689202.5589591665772230.19916325
688983.6300346695772337.78279282688751.9114479175772463.42241615
688455.4922168115772608.62269941 688216.250299325772744.79498578
688066.5360176195772849.36928305687912.3077374765772941.15391806
Rch Text X Y=692398.6579402,5770161.6593766
Reverse River Text= 0 

Type RM Length L Ch R = 1 ,8248    ,34.95,29.383,17.233
XS GIS Cut Line=3
 693803.901952935769085.66049402693917.2484538415769442.76291087
694099.4560010065769828.50664785
Node Last Edited Time=Jun/21/2023 20:10:15
#Sta/Elev= 335 
       0   52.39     1.5   52.42       2   52.49     3.5   52.81     5.1   53.27
     5.7   53.41     6.7   53.41     7.8   53.38     9.9   52.89      12   52.25
    14.1   51.67    16.2   51.01    16.5   50.95    20.4   50.37    21.1   50.29
    22.5   50.09    23.1   50.05    24.6   49.93    26.7   49.88    28.8   49.93
      33   50.18    35.4   50.27    37.2   50.36    39.3   50.44    45.6   50.59
    49.8   50.59    51.9   50.61      54   50.66    58.2    50.8    60.3   50.78
    62.5   50.69    64.1   50.68    64.5   50.68    66.6   50.91    67.3   50.91
    68.7   50.84    70.8    50.7      75   50.71    78.4   50.82    81.3   50.87
    83.4   50.84    85.5   50.68    86.4   50.65      88   50.64    89.7   50.51
    91.7   50.55    93.8   50.63    95.9   50.63   100.1   50.49   102.2   50.39
   104.3   50.31   108.5    50.3   113.4   50.22   114.8   50.23   115.7   50.26
   116.9   50.34     119   50.54   121.4   50.68   123.2   50.73   125.3   50.67
   127.4   50.66   131.6   50.55     136   50.34   137.3    50.3   137.550.28333
   137.9   50.25   138.9   50.07     140   49.84   142.1   49.27   144.2   48.52
   145.3   48.34   146.3   48.19   146.9   48.16   148.4   48.15   150.5   48.16
   162.8   48.12   175.2   48.14   181.9   48.13   186.7   48.17   196.7   48.15
     209   48.16     21148.15583   213.8   48.15   215.6   48.17   217.6   48.44
   218.6   48.75   219.7   49.18   221.5   49.68   221.8   49.75   221.8   49.77
   223.9    49.7   226.5    49.5   228.1   49.41   229.7   49.35   231.3   49.34
   232.3   49.31   232.9   49.34   234.4   49.34   234.7   49.37   236.5   49.72
   238.6   50.07   242.5   50.15   244.9   50.15     247   50.26   249.1   50.51
   251.2   50.54   253.3   50.44   255.4    50.4   256.8   50.47   257.5   50.52
   258.4   50.65   259.6    50.9     260   50.86   261.1    50.7   261.6    50.6
   263.2   50.33   263.8   50.26   265.9   50.32   268.1    50.3   269.5   50.33
   270.1   50.32   271.1   50.25   272.2   50.22   274.3   50.23   275.9   50.22
   278.5   50.12   280.6   50.14   282.7   50.43   284.8   50.69   286.9   50.73
   288.6    50.7     289   50.68   290.2   50.55   291.1   50.44   293.4      50
     295   49.76   296.6   49.61   297.4   49.55   299.8   49.61   301.4   49.61
   307.9   49.52   310.9   49.63   314.2   49.77   316.3   49.79   320.5   49.75
   322.6   49.67   324.7   49.55   326.8   49.48   327.2   49.48   328.9    49.5
   331.7   49.58   333.1   49.61   335.2   49.76   337.3   49.84   339.4   49.89
   341.2   49.95   343.5   49.98   349.2      50   354.2   49.87   358.2   49.72
   360.3   49.61   362.4    49.6   364.5   49.62   366.6    49.6   372.9   49.42
   374.7   49.44   377.3   49.43   381.7   49.35   390.5   49.24   399.4   48.99
   401.6   48.99   403.8   49.11     406   49.08   408.2   49.02   412.6   48.95
   417.1   48.91   425.4   48.91   428.1   48.97   430.3   49.07   434.8   49.02
   441.4   48.98   443.6   48.98     448   49.16   449.8   49.19   452.5   49.15
   454.7   49.05   455.8   48.98   456.9   48.94   459.1   49.11   461.8   48.97
   463.5   48.93   464.8   48.87   465.7   48.86   467.9   48.71   469.3   48.59
   470.2   48.54   470.8   48.53   472.5    48.4   473.8   48.38   474.6   48.31
   476.8   48.27   478.3   48.32   481.2   48.26   482.8   48.28   485.6   48.27
   487.3   48.28   488.8   48.27   490.1   48.27   490.9    48.3   492.3   48.33
   495.6   48.24   497.8   48.23   500.3   48.21   501.1   48.21   503.3   48.24
   505.5   48.31   507.8    48.3     510   48.24   517.4   48.26   518.8   48.25
     521   48.21   526.4   48.18   533.1   48.22   538.4   48.19   543.1   48.23
   547.6   48.18   549.8   48.22   551.8   48.23   556.4   48.23   560.8   48.19
   565.3   48.25   567.5    48.2   571.9   48.24   589.2   48.24   592.5   48.22
   607.3   48.27   611.7   48.32   613.9   48.31   616.1   48.25     618   48.22
     621    48.2   626.7   48.22   631.6    48.2   640.5    48.2   645.4   48.24
   647.1   48.23   649.3    48.2   664.8   48.19   669.2   48.23   673.6   48.22
   675.9   48.27   678.1   48.34   679.6   48.26   680.3   48.24   681.1   48.38
   682.1   48.93   682.5   49.08   682.6   49.12   682.9   49.37   684.1   50.27
   684.7   51.02   685.6   53.94   686.3   55.58   686.9   57.15   687.1   56.39
   687.6   55.15   688.6   51.13   689.1   50.32   690.1   49.16   690.5    48.5
   691.3   47.24   691.6   47.17   692.3   47.28   693.1   50.34   693.6   52.17
   694.6   52.27   694.7   51.94   695.8   48.47   696.1   48.56     697   48.84
   697.7    49.2     698   49.21   699.2   49.34   700.7   49.48   701.6   49.69
   702.4   49.82   703.7   49.79   704.6   49.81   705.2   49.87   706.3   50.05
   706.7   50.09   706.8   50.13   708.2   50.22     709   50.33   711.3   50.41
   715.7   50.49   719.9   50.59   722.3    50.6   724.5    50.6   726.7   50.49
   728.9   50.44   731.2   50.31   733.7   50.28   736.6   50.23   737.8   50.23
   739.1   50.29   742.7   50.37   748.9   50.63   753.3    50.9   755.5   51.07
   756.2   51.09   757.7   51.17   759.2   51.34   759.9   51.38   762.5   51.32
   766.5   51.39   768.8   51.49   771.9   51.79   775.4   52.03   775.8   52.06
   776.6   52.16   777.6   52.31   778.8   52.42   779.8    52.5   784.2   52.57
   784.8   52.56   786.5    52.6   788.7   52.54   790.8   52.45   792.3    52.5
   793.8   52.51   795.3   52.45   797.5   52.43     800   52.43   801.3   52.45
#Mann= 1 ,-1,0
       0 .033333       0
Bank Sta=137.5,211
XS Rating Curve= 0 ,0
XS HTab Starting El and Incr=48.27,0.3, 30 
XS HTab Horizontal Distribution= 5 , 5 , 5 
Exp/Cntr(USF)=0,0
Exp/Cntr=0.3,0.1

Type RM Length L Ch R = 1 ,8218.67*,34.95,29.383,17.233
XS GIS Cut Line=5
693770.9824675875769098.01152381693816.2410020835769238.37717131
693887.3349327125769394.66494928693901.0909402825769439.24383395
694070.5978671655769827.64673151
Node Last Edited Time=Jun/21/2023 20:19:52
#Sta/Elev= 500 
       0  52.492   1.514  52.528   2.018  52.584   3.532  52.844   5.146   53.22
   5.752  53.326   6.761  53.302   7.464  53.271   7.871   53.24   9.473  52.845
    9.99  52.713  11.483  52.246  12.109  52.055  13.109  51.773  14.228  51.484
  15.502  51.111  16.347  50.883  16.841  50.793  17.607  50.681  17.894  50.649
  19.616  50.416  20.585   50.31  21.292  50.252  21.626  50.216  22.705  50.086
  23.635  50.029  24.824  49.942  26.943   49.89  29.062  49.924  30.621  49.995
    33.3  50.126  35.722  50.203  37.538   50.28  39.657   50.35  40.477  50.368
  46.015  50.495  50.046  50.515  52.372  50.535  54.491  50.578  58.084  50.677
  58.729  50.696  60.848  50.684  63.068  50.612  64.208  50.606  65.086  50.606
  67.205  50.804  67.912  50.806  69.325   50.75  71.444  50.638  75.682  50.654
  79.113  50.753  82.039  50.794  84.158  50.769  86.277  50.635  87.185  50.608
    88.8  50.595  90.515  50.482  92.532   50.51  94.653  50.579  96.772  50.582
  101.01  50.463 102.675  50.396 103.129  50.382 105.248  50.334  106.79  50.344
 109.486  50.348 110.809  50.336 112.627  50.324 114.431  50.322 115.844  50.357
 116.752    50.4 117.963   50.48 118.942  50.565 120.082   50.65 122.504  50.759
  124.32  50.794 124.971  50.775 126.439   50.69  127.65   50.65 128.558  50.627
 130.616  50.545 131.095  50.532 132.796  50.508 133.678  50.475 135.114  50.412
 137.236  50.314 138.548  50.272  138.75  50.257 139.201  50.227 140.328   50.08
 141.568  49.863 142.139  49.735 143.935  49.322 144.952  49.028 146.302  48.673
 147.542   48.52 148.669  48.386 149.345  48.355 150.579  48.339 151.036  48.329
 152.049  48.317  153.52  48.323 154.926   48.34 156.269  48.333 157.804  48.306
 161.768   48.25 163.942  48.235 165.029  48.217 166.499  48.144 167.267  48.127
 167.737  48.135 169.289  48.232   169.9  48.259 170.935  48.274 172.016  48.268
 173.145  48.288 174.133    48.3 175.214    48.3  175.92  48.272 176.625   48.27
  177.33  48.285 178.036  48.331 178.741  48.364 179.447  48.369 180.528  48.385
 182.221  48.397 183.726  48.415 184.996  48.415 185.701  48.398 187.065  48.358
  187.77  48.356 188.476  48.378 189.181  48.413 189.887  48.417 190.545  48.428
 191.956   48.43 192.661  48.447 193.273  48.469 193.508   48.47 194.354  48.448
  194.73  48.428 195.436  48.406  196.47  48.406 197.505   48.45 198.587  48.456
 199.668  48.413 200.703  48.425 202.819  48.396 203.571  48.398 204.982  48.388
 205.876  48.388 206.581  48.381 207.616  48.353 209.215  48.336 210.061  48.361
 211.331  48.343  211.66  48.342 212.836  48.356 213.682   48.36 214.247   48.37
 215.704  48.381 216.645  48.411 217.727  48.485 218.432  48.496 219.843  48.496
 220.924  48.507 221.959  48.506 224.075  48.482 225.157  48.376 226.238  48.238
 227.273  48.203 228.214   48.31 229.483  48.345 230.723  48.354 232.179  48.358
 233.327  48.374 233.912   48.39 235.838   48.65   236.8  48.926 237.859  49.294
 239.592  49.718 239.881  49.778 239.881  49.794 241.903  49.746 243.617  49.648
 244.406  49.593 245.947  49.515 247.487  49.461   248.7   49.45 249.027  49.451
  249.99  49.434 250.568  49.463 252.012  49.472 252.301  49.499 254.034  49.796
 256.055  50.082 258.494  50.118  259.81  50.143 261.594  50.145 262.121  50.142
 264.143  50.215 266.164  50.386 266.677  50.383 268.186  50.394  269.28  50.345
 270.208  50.313  271.76  50.298  272.23  50.289 273.578  50.346 274.252  50.387
 275.118   50.49 276.273   50.69 276.659  50.655 277.718  50.513 278.199  50.424
 279.739  50.187 280.317  50.124 282.339  50.156 284.457  50.117 285.805  50.132
 286.382   50.12 287.345  50.056 288.404  50.027 290.426   50.03 291.966  50.022
  294.47  49.941 296.491  49.956 298.513  50.188 300.535  50.393 302.557  50.415
 304.193  50.386 304.579  50.368 305.734  50.254   306.6  50.157 307.714  49.966
 308.815  49.762 310.355  49.533 311.896   49.39 312.666  49.331 314.976  49.386
 316.517  49.388 318.004  49.371 320.483  49.332 322.775  49.307 325.663  49.402
  328.84  49.517 330.862  49.533 334.905  49.501 336.927  49.433 338.949  49.331
 340.971  49.272 341.356  49.272 342.993   49.29 345.688  49.355 347.036  49.381
 349.058  49.508  351.08  49.576 353.102  49.619 354.835   49.67 357.049  49.695
 362.537  49.712 364.124  49.676  367.35    49.6 371.201   49.47 373.223  49.377
 375.245  49.368 377.267  49.384 379.289  49.367 385.354   49.22 387.087  49.238
  389.59  49.232 393.826   49.16  394.87  49.147 397.474  49.126 400.078  49.107
 402.299  49.083 407.764  48.967 410.244  48.917 410.867  48.902 412.985  48.905
 415.103  49.008 417.221  48.988 419.339  48.944 422.766  48.906 423.576  48.899
 427.908  48.885 428.841  48.883 431.444  48.885 433.304  48.878 435.899  48.843
 438.498  48.898 440.616  48.984 444.949  48.941 448.801  48.918 451.281   48.89
 453.421  48.882 453.884  48.896 456.488   48.99 457.657  49.029  459.39  49.045
 461.571  49.007  461.99  49.002 464.108  48.918 465.167   48.86 466.226  48.827
 468.344  48.968 469.257  48.927 470.943  48.857  472.58  48.829 473.832  48.783
 474.698  48.776 476.816  48.645 478.164   48.54  479.03  48.494 479.608  48.483
 481.245   48.37 482.496  48.353 483.267  48.297 485.385  48.271 486.829  48.315
  487.73  48.301 489.621  48.277 491.161  48.294 491.821  48.291 493.857  48.289
 495.494    48.3 496.938  48.293 498.189  48.294  498.96  48.319 500.307  48.344
 503.485  48.257 505.211   48.24 505.955  48.244 507.691  48.244  508.78  48.258
 510.294  48.298 510.898  48.308 513.016  48.378  515.23  48.367 517.348  48.318
 517.981   48.32 520.584  48.341 523.064  48.383 524.473  48.422 525.821  48.446
 527.939  48.446 528.271   48.45 533.138  48.436 535.958  48.451 538.437  48.469
 539.588  48.482 544.691  48.486 546.248  48.506 549.216  48.555 551.331  48.553
 553.548  48.548 555.666  48.598 556.414  48.607 557.592  48.615  558.77  48.618
  562.02  48.635 566.256  48.615 569.308  48.672 570.589  48.694 572.707  48.661
 574.391   48.68 576.943  48.703 579.474  48.707 584.681  48.707 587.285  48.712
 589.764  48.722 593.599  48.719 596.776  48.698 605.138  48.703 607.493   48.71
 611.025  48.713 612.824  48.726 615.261  48.736 617.379  48.719 618.031  48.701
 619.497  48.682 620.511  48.679 621.326  48.671 624.215  48.664 625.718  48.673
 629.702  48.701 630.801  48.701 635.884  48.695 641.091  48.687 642.988  48.681
 646.546   48.69 647.706  48.691 649.343  48.672 651.461  48.633 653.861  48.634
 656.465  48.617 659.068  48.581 661.548  48.573 666.383  48.578  670.62  48.606
 671.838  48.603 674.318  48.588 674.856  48.583  677.07  48.608 679.188  48.655
 680.632  48.587 681.306  48.571 682.076  48.688 683.039  49.146  683.52  49.305
 683.809  49.513 684.965  50.262 685.542  50.886 686.409  53.318 687.083  54.684
  687.66  55.992 687.853  55.358 688.334  54.325 689.297  50.975 689.778    50.3
 690.741   49.33 691.126  48.778 691.896  47.725 692.185  47.665 692.859  47.755
 693.629  50.304 694.111  51.829 695.074  51.912  695.17  51.637 696.229  48.744
 697.384  49.052 698.058  49.353 698.347  49.362 699.502  49.473 700.946  49.593
 701.813   49.77 702.583   49.88 703.835  49.856 704.701  49.873 705.279  49.923
 706.338  50.072 706.723  50.105 706.819  50.138 708.167  50.212 708.937  50.306
 711.152  50.377 715.388  50.453 717.958  50.515 719.431  50.553 721.742  50.573
  723.86  50.582 725.978  50.501 728.096  50.474 730.311  50.388 732.718  50.393
 735.509  50.388 736.665  50.399 737.916  50.458 741.382   50.55 743.621  50.655
 745.357  50.731 746.225  50.766 747.351  50.821 749.448  50.958 751.588  51.104
 753.706  51.278  754.38  51.305 755.824  51.393 757.268  51.557 757.942  51.601
 758.995  51.596 760.445  51.555 761.598  51.561 764.296   51.61  766.51  51.699
 769.285  51.944 769.495  51.967 771.889  52.167  773.25  52.299  774.02   52.41
 774.368  52.469 774.983  52.558 776.138  52.669 777.101  52.752 779.575  52.786
 781.337  52.802 781.914  52.791 783.551  52.831 784.658  52.811 785.669  52.763
 787.262  52.668 787.691  52.633 789.135  52.612 789.865  52.584 790.579  52.582
 792.023  52.525 792.345  52.516 794.081    52.5 796.548   52.49   797.8  52.503
#Mann= 4 ,-1,0
       0  .03333       0  138.75  .03333       0 229.483  .03333       0
   797.8  .03333       0
Bank Sta=138.75,229.483
XS Rating Curve= 0 ,0
XS HTab Starting El and Incr=48.28,0.3, 29 
XS HTab Horizontal Distribution= 5 , 5 , 5 
Exp/Cntr=0.3,0.1

Type RM Length L Ch R = 1 ,8189.33*,34.95,29.383,17.233
XS GIS Cut Line=5
693738.062982243 5769110.3625536693783.7642738615769249.90005537
693871.599626732 5769391.2359881693884.9334267225769435.72475702
694041.7397333245769826.78681517
Node Last Edited Time=Jun/21/2023 20:19:52
#Sta/Elev= 500 
       0  52.593   1.527  52.635   2.036  52.677   3.564  52.877   5.193  53.169
   5.804  53.241   6.822  53.194   7.531  53.151   7.942  53.099   9.559   52.68
   10.08  52.537  11.586  52.053  12.218   51.86  13.228  51.571  14.356  51.297
  15.641  50.949  16.495  50.756  16.993  50.665  17.766  50.553  18.055  50.531
  19.793  50.319  20.771   50.25  21.821  50.188  22.909  50.081  23.848  50.033
  25.047  49.954  27.185    49.9  29.324  49.918  30.897  49.968  32.055   50.01
    33.6  50.073  36.044  50.137  37.876    50.2  40.015   50.26  40.841  50.276
  46.429  50.401  50.497   50.44  52.844   50.46  54.982  50.497  58.607  50.576
  59.258  50.593  61.396  50.588  63.636  50.533  65.673  50.532  67.811  50.697
  68.524  50.702  69.949  50.661  72.087  50.576  76.364  50.599  79.825  50.685
  82.778  50.719  84.916  50.698  87.055   50.59  87.971  50.566    89.6  50.551
  91.331  50.454  93.366   50.47  95.505  50.528  97.644  50.533  101.92  50.435
   103.6  50.381 106.196  50.357 107.752  50.381 110.473  50.397 111.807  50.392
 113.641  50.399 115.186  50.416 116.887  50.484 117.804  50.539 119.025  50.621
 120.014  50.698 121.164  50.761 123.607  50.839  125.44  50.858 126.097  50.838
 127.578   50.71 128.124  50.672 129.716  50.593 130.248  50.561 131.793  50.484
 132.276  50.469 133.993  50.465 134.883  50.442 136.331  50.384 138.473  50.288
 139.796  50.244     140   50.23 140.502  50.204 141.921  50.072 143.136  49.886
 143.771  49.768  145.77  49.374 146.902  49.108 147.969  48.903 148.404  48.827
 150.317  48.654 151.038  48.583  151.79  48.551 153.163  48.525 154.799   48.48
 156.436  48.486 158.001  48.524 159.495  48.514 161.203  48.465 165.614  48.364
 168.033   48.34 169.243  48.308  170.88  48.165 171.733  48.133  172.31   48.15
 173.635  48.278 174.211  48.342  174.96  48.396 176.228  48.423 177.553  48.411
 178.936  48.448 180.146  48.472 181.471   48.47 182.336  48.414   183.2  48.408
 184.064  48.438 184.929  48.529 185.793  48.593 186.657  48.603 187.983  48.634
 190.057  48.656 191.901   48.69 193.169  48.696 194.321  48.658 195.992   48.58
 196.856  48.577 197.721  48.623 198.585  48.692 199.449  48.702 200.256  48.724
 201.985   48.73 202.849   48.76 203.598  48.799 203.886    48.8 204.923   48.75
 205.384  48.709 206.249  48.658 207.516  48.653 208.784  48.734 210.109  48.743
 211.435  48.658 212.702  48.684 215.295  48.628 216.217  48.634 217.946  48.616
 219.041  48.619 219.905  48.605 220.539  48.584 221.173   48.55 223.132  48.519
 224.169  48.571 225.725  48.537 226.128  48.534 227.569  48.561 228.606  48.568
 229.297  48.588 231.084  48.609 232.236  48.669 232.697  48.713 233.561  48.816
 234.829   48.84 236.154  48.837  237.48  48.857 238.747  48.855  241.34  48.805
 242.665  48.593 243.991  48.316 245.258  48.246 246.411  48.462 246.987  48.495
 247.967  48.535 249.158  48.555 250.558  48.566 251.661  48.585 252.224  48.611
 254.075   48.86 255.001  49.101 256.019  49.409 257.962  49.819 259.906  49.792
 261.553  49.732 262.312  49.687 263.793  49.621 265.274  49.571  266.44  49.558
  267.68  49.558 268.236  49.587 269.624  49.605 269.901  49.628 271.567  49.872
 273.511  50.094 275.855  50.115  277.12  50.136 278.835   50.14 279.342  50.134
 281.285  50.171 283.229  50.262 283.721  50.248 285.172  50.247 286.224  50.204
 287.116  50.186 288.608  50.186  289.06  50.179 290.355  50.222 291.003  50.254
 291.836   50.33 292.947  50.481 293.317  50.449 294.335  50.325 295.282  50.178
 296.279  50.045 296.834  49.988 298.778  49.991 300.814  49.934 302.109  49.935
 302.665   49.92  303.59  49.862 304.608  49.834 306.552   49.83 308.033  49.823
 310.439  49.762 312.383  49.772 312.921  49.824 314.326  49.946  316.27  50.096
 318.213    50.1 319.787  50.071 320.157  50.056 321.268  49.959 322.101  49.874
 323.171  49.713 324.229  49.524  325.71  49.306 327.191  49.171 328.057  49.112
 330.153  49.163 331.633  49.167 333.063  49.152 335.447  49.112 337.649  49.094
 340.426  49.173  343.48  49.265 345.424  49.277 347.961  49.263 349.311  49.251
 351.254  49.195 353.198  49.113 355.142  49.063 357.085  49.079 359.677  49.131
 360.972  49.152 362.916  49.255  364.86  49.312 366.803  49.349 368.469   49.39
 370.598   49.41 375.873  49.423 377.399  49.395 380.501  49.329 384.203  49.221
 386.147  49.143  388.09  49.136 390.034  49.148 391.977  49.133 397.808  49.021
 399.474  49.036  401.88  49.033 405.953  48.969 406.956  48.958 409.459  48.948
 411.962  48.946 414.346  48.922 419.351  48.854 422.334  48.815  424.37   48.82
 426.407  48.906 428.443  48.896 430.479  48.868 433.772  48.849 434.551  48.847
 438.716   48.86 439.612  48.857 442.115   48.86 443.903  48.847 446.398  48.777
 448.897  48.825 450.933  48.899 455.098  48.862 458.801   48.84 461.184    48.8
 463.242  48.784 463.687  48.793  466.19   48.87 467.314  48.897  468.98  48.901
 471.479  48.853 473.515  48.787 474.533   48.74 475.552  48.713 477.588  48.827
 478.466  48.794 480.087  48.744  481.66  48.728 482.863  48.697 483.696  48.692
 485.732  48.581 487.028  48.489 487.861  48.448 488.416  48.436  489.99  48.341
 491.193  48.326 491.933  48.284 493.969  48.271 495.358   48.31 496.224    48.3
 498.042  48.294 499.522  48.308 500.157  48.305 502.114  48.309 503.687  48.321
 505.076  48.316 506.279  48.318 507.019  48.339 508.315  48.357 510.526    48.3
 511.369  48.273 513.029  48.248 513.744  48.261 515.413  48.275 516.459  48.305
 517.915  48.364 518.496  48.377 520.532  48.446  522.66  48.434 524.697  48.396
 525.305  48.398 527.808  48.433 530.191  48.511 531.545  48.584 532.841  48.642
 535.197  48.692 539.875  48.692 542.586  48.705  544.97  48.725 546.076  48.743
 550.981  48.782 552.478  48.809 555.331  48.879 557.365    48.9 559.496  48.917
 561.532  48.975 562.251  48.989 564.516  49.007 567.641  49.039 571.713   49.04
 572.144  49.047 574.646  49.112 575.878  49.137 577.914  49.123 579.533  49.144
 581.986  49.167 584.419  49.173 589.425  49.173 591.928  49.183 594.311  49.203
 597.998  49.198 599.317  49.191 601.052  49.175  609.09  49.156 611.355  49.162
 614.749  49.156 616.479  49.161 618.822  49.152 620.858  49.128 621.485  49.111
 622.894  49.115 623.869  49.126 624.653  49.123 627.429  49.129 628.874   49.14
 632.705  49.181 633.761  49.187 636.621  49.192 638.647   49.19 643.653  49.173
 645.477  49.161 646.156  49.161 648.897   49.15 650.012  49.141 651.585  49.113
 653.545  49.067 655.929  49.069 658.432  49.038 660.935  48.967 663.318  48.952
 667.847  48.967 672.039  48.983  673.21  48.978 675.594  48.954 676.111  48.945
 678.097  48.944 680.276   48.97 681.664  48.914 682.312  48.901 683.053  48.995
 683.978  49.362 684.441  49.489 684.719  49.656 685.829  50.255 686.385  50.753
 687.218  52.696 687.865  53.787 688.421  54.833 688.606  54.327 689.069    53.5
 689.994   50.82 690.457   50.28 691.382  49.499 691.753  49.056 692.493   48.21
 692.771  48.161 693.419   48.23 694.159  50.269 694.622  51.488 695.547  51.553
  695.64  51.333 696.658  49.018 697.768  49.263 698.416  49.506 698.694  49.514
 699.805  49.606 701.193  49.706 702.026   49.85 702.766   49.94 703.969  49.922
 704.802  49.936 705.358  49.976 706.376  50.094 706.746  50.119 706.839  50.146
 708.134  50.205 708.875  50.281 711.003  50.344 714.686  50.408 717.546  50.476
 718.963  50.517 721.184  50.547  723.22  50.565 725.256  50.511 727.293  50.508
 729.421  50.466 731.735  50.506 734.419  50.546  735.53  50.567 736.733  50.626
 740.065   50.73 742.217  50.842 743.886  50.919  744.72  50.951 745.803  51.011
 747.819  51.152 749.875  51.308 751.911  51.486 752.559   51.52 753.947  51.617
 755.336  51.774 755.984  51.821 756.996  51.837  758.39   51.79 759.499  51.781
 762.092  51.829 764.221  51.909 766.888  52.119  767.09  52.144 769.391  52.374
 770.699  52.538 771.774  52.723 772.365  52.806 774.277  52.996 774.401  53.003
  776.78  53.031 778.474  53.034 779.283  53.024 780.602  53.061 781.667  53.052
 782.638  52.987 784.169  52.866 784.582  52.816  785.97  52.724 786.672  52.663
 787.359  52.654 789.056  52.585 791.559   52.56 793.097  52.551   794.3  52.557
#Mann= 4 ,-1,0
       0  .03333       0     140  .03333       0 247.967  .03333       0
   794.3  .03333       0
Bank Sta=140,247.967
XS Rating Curve= 0 ,0
XS HTab Starting El and Incr=48.28,0.3, 27 
XS HTab Horizontal Distribution= 5 , 5 , 5 
Exp/Cntr=0.3,0.1

Type RM Length L Ch R = 1 ,8160.00*,34.95,29.383,17.233
XS GIS Cut Line=5
693705.1434947625769122.71358419693751.2875435315769261.42294018
 693855.86431973 5769387.8070267693868.7759121145769432.20567987
 694012.881597615769825.92689877
Node Last Edited Time=Jun/21/2023 20:19:52
#Sta/Elev= 500 
       0  52.695   2.055  52.771   3.595  52.911   5.239  53.119   5.855  53.157
   7.598  53.031   8.013  52.959   9.644  52.515   10.17   52.36   11.69   51.86
  12.327  51.665  13.346  51.368  14.485  51.111  15.197  50.941  15.781  50.787
  17.145  50.536  17.924  50.424  18.216  50.413   19.97  50.221  22.016  50.161
  23.114  50.077  24.061  50.037  25.271  49.966  26.107   49.94  27.428  49.911
  29.585  49.912  31.172  49.941  32.341   49.97    33.9  50.019  36.365   50.07
  38.215  50.119  40.372   50.17  41.206  50.185  46.844  50.306  50.947  50.365
  53.315  50.384  55.473  50.415   59.13  50.474  59.787  50.489  61.945  50.492
  64.205  50.455  65.365  50.451  66.259  50.458  68.416  50.591  69.135  50.597
  70.574  50.571  72.731  50.514  77.045  50.543  80.538  50.618  83.517  50.643
  85.675  50.627  87.832  50.545  88.756  50.524    90.4  50.506  92.146  50.427
  94.199   50.43  96.358  50.478  98.515  50.485  102.83  50.408 104.525  50.366
 107.145  50.381 108.714  50.418 111.459  50.445 112.805  50.449 114.656  50.475
 116.215  50.512 117.931  50.612 119.234  50.712 120.088  50.761 121.085  50.831
 122.245  50.871 124.711  50.918 125.859  50.926  126.56  50.922 127.222  50.901
 128.717   50.73 129.268  50.674 131.411  50.518  132.97  50.423 133.457  50.407
 135.189  50.423 136.087  50.409 137.548  50.355 139.709  50.262  141.25  50.204
 141.803  50.181 143.366  50.086 144.704  49.909 145.403  49.801 147.605  49.426
 148.851  49.189 150.027  49.032 150.506   48.98 151.202  48.939 152.613  48.843
 153.407  48.779 154.235  48.746 155.747  48.711  157.55  48.642 158.176  48.638
 159.352   48.65 161.076  48.708 162.722  48.696 164.602  48.624 169.461  48.478
 172.125  48.445 173.457  48.398  175.26  48.186   176.2   48.14 176.882  48.165
 178.451  48.356 179.133  48.451  180.02  48.532 181.521  48.572  183.09  48.553
 183.704  48.568 184.727  48.609  185.75  48.624  186.16  48.644 186.774  48.635
 187.729   48.64 188.752  48.555 189.229  48.541 189.775  48.546 190.798  48.591
 191.822  48.727 192.367  48.787 192.845  48.822 193.868  48.838 195.437  48.883
 197.893  48.914 200.076  48.965 201.576  48.974 201.918  48.969 202.941  48.919
 204.919  48.803 205.942  48.797 206.215  48.807 206.965  48.867 207.989  48.972
 209.012  48.986 209.967  49.021  210.99   49.02 212.013   49.03 213.037  49.072
 213.924  49.129 214.265   49.13 215.493  49.053 216.038  48.989 217.061  48.911
 218.562    48.9 220.063  49.018 221.632   49.03 223.201  48.904 224.702  48.943
 227.771  48.861 228.863  48.871 230.909  48.845 232.205  48.849 233.229  48.828
 233.979  48.798 234.729  48.748 237.049  48.701 238.277  48.781 240.119   48.73
 240.596  48.725 242.301  48.766 243.529  48.776 244.348  48.806 245.371  48.826
 246.463  48.836 247.827  48.927 248.373  48.992 249.396  49.147 250.419  49.177
 250.897  49.182 252.466  49.178 254.035  49.208 255.535  49.203 258.605  49.129
 260.174  48.809 261.743  48.395 263.244   48.29 263.517  48.345 264.608  48.614
  265.29  48.664  266.45  48.725 267.594  48.757 268.937  48.775 269.996  48.797
 270.536  48.831 272.313   49.07 273.201  49.277 274.178  49.523 275.777  49.795
 276.043  49.833 277.909  49.838  279.49  49.817 280.218   49.78  281.64  49.726
 283.061  49.682  284.18  49.666  285.37  49.682 285.903   49.71 287.236  49.737
 287.502  49.758  288.87  49.925 290.966  50.106 293.217  50.111 294.431  50.129
 296.076  50.135 298.428  50.126 300.293  50.139 300.766  50.114 302.159  50.101
 303.168  50.063 304.024  50.059 305.456  50.075 305.889  50.068 307.133  50.098
 307.755   50.12 308.554   50.17  309.62  50.271 309.976  50.244 310.953  50.138
 311.862  50.011 312.818  49.902 313.351  49.852 315.216  49.827 317.171  49.751
 318.414  49.737 318.947   49.72 319.835  49.668 320.813   49.64 322.042  49.628
 324.099  49.625 326.409  49.584 328.274  49.588 330.139  49.705 332.005  49.799
  333.87  49.785  335.38  49.757 335.736  49.744 336.802  49.663 337.601  49.591
 338.628  49.459 339.644  49.287  341.03  49.083 342.487  48.951 343.318  48.892
 345.329  48.939  346.75  48.945 348.122  48.934  350.41  48.891 352.524  48.882
  358.12  49.012 359.986   49.02 362.421  49.012 363.716  49.002 365.582  48.958
 367.447  48.894 369.312  48.855 371.178  48.869 374.909  48.922 376.774  49.003