Flow Title=EUK_Fall_1
Program Version=6.40
Number of Profiles= 1 
Profile Names=PF 1
River Rch & RM=ElbeUmflut,Reach 1         ,8315    
     616
Boundary for River Rch & Prof#=ElbeUmflut,Reach 1         , 1 
Up Type= 3 
Up Slope=0.00015
Dn Type= 0 
DSS Import StartDate=
DSS Import StartTime=
DSS Import EndDate=
DSS Import EndTime=
DSS Import GetInterval= 0 
DSS Import Interval=
DSS Import GetPeak= 0 
DSS Import FillOption= 0 
