Flow Title=616f_steady
Program Version=6.40
Number of Profiles= 1 
Profile Names=PF 1
River Rch & RM=Elbe-Umflut,Elbe-Umflut-Reac,8248    
     616
Boundary for River Rch & Prof#=Elbe-Umflut,Elbe-Umflut-Reac, 1 
Up Type= 3 
Up Slope=0.00015
Dn Type= 3 
Dn Slope=0.00015
DSS Import StartDate=
DSS Import StartTime=
DSS Import EndDate=
DSS Import EndTime=
DSS Import GetInterval= 0 
DSS Import Interval=
DSS Import GetPeak= 0 
DSS Import FillOption= 0 
