Geom Title=Elbe-Umflutkanal
Program Version=6.40
Viewing Rectangle= 687701.814549465 , 694190.851674507 , 5773083.67820769 , 5768950.01003505 

River Reach=Elbe-Umflut     ,Reach 1         
Reach XY= 97 
693895.8954415515769235.25705645693778.6815621125769267.16868855
693723.552236573 5769298.9787496693693.6673793895769316.68450403
 693652.524528065769340.83801874693628.1663225465769356.49686514
693603.5010808295769371.84867533693579.3475661195769388.22393955
693558.5714496525769408.48832901 693544.447784275769433.97233393
693533.7015171325769461.19621068693508.5636510035769475.31881212
693480.842758844  5769478.744934693452.1695983525769481.74063734
 693423.710416675769478.31697638693397.6050018935769469.54384519
693369.5737778315769475.32127305693341.7565325775769481.74063734
693313.7253085155769488.58795924693285.0521480235769492.22559901
693257.3560447315769500.20839759693114.9426724655769555.28939653
693036.9425736545769587.21418604692936.7302298995769576.92452575
 692852.623441395769549.63455714692803.4120225825769514.73918744
692754.2006037745769472.68579318692720.1999871435769441.36943576
692697.3837838775769388.57900467692666.5148029895769343.39397468
692621.3297729925769285.68240171692590.4607921045769244.52376053
 692535.880854885769181.89104568692504.3402599035769146.99567598
692370.238672023 5769137.9040429 692269.473072095769161.39076168
692192.1941909385769178.05875566692149.0089338245769183.36220829
692083.0945940185769227.30510149692020.9684346615769272.00563078
691980.0560858165769326.55542924691959.5999113945769401.56140212
 691942.931917425769483.38609981691924.748651267 5769572.7871584
691914.1417460115769634.91331776691930.8097399855769682.64439141
691952.781186586 5769720.5261959691941.4166452415769780.37944699
691907.3230212035769852.35487551691875.5023054355769931.14902884
691845.9544979365769987.21409948691804.2845130015770056.91661973
691799.7386964635770116.76987082691798.2234242845770187.98766325
 691808.830329545770261.47836396691794.4352438355770330.42324812
691767.9179806955770394.82231575691748.9770784525770465.28247209
691740.6430814655770527.40863145691731.5514483885770600.89933215
691724.7327235815770674.39003286 691725.490359675770746.36546138
691733.066720568 5770811.5221651691702.0036408895770878.95177708
691661.091292044 5770936.5321199691601.9956770465770983.50555746
691529.2626124335771016.84154541 691454.256639555771046.38935291
691367.8861253225771078.96770477691280.7579750045771107.00024009
691204.2367299425771138.82095585 691156.505656295771206.25056784
691105.7440382795771293.37871816691052.7095119985771362.32360232
690995.1291691795771423.69212559690935.2759180915771482.78774059
690861.7852173885771543.39862777690786.0216084165771565.37007437
690686.7712806635771539.61044732690609.4923995115771519.91190898
690529.1829740015771544.91389995690446.6006402215771588.09915706
690307.9532358025771655.52876904690170.0634674735771737.35346673
689996.5648029275771829.78506968 689852.613945885771904.03340647
689679.872917424 5771990.4039207689441.9751852515772110.11042288
689213.9267222455772220.72529198689004.8191614835772329.06725281
688772.2248819385772453.31957152688672.3093496985772498.11616907
688587.804893159 5772533.4092068688504.294606697 5772578.6439453
 688380.02334708 5772649.7271058688188.1485222325772772.01002527
687996.7707824225772895.78419985
Rch Text X Y=,
Reverse River Text= 0 

LCMann Time=Dec/30/1899 00:00:00
LCMann Region Time=Dec/30/1899 00:00:00
LCMann Table=0
Chan Stop Cuts=-1 



Use User Specified Reach Order=0
GIS Ratio Cuts To Invert=-1
GIS Limit At Bridges=0
Composite Channel Slope=5
